Geom Title=geo
Program Version=6.70
Viewing Rectangle= 514251.727213128 , 519777.191732352 , 1507307.23802471 , 1504241.89023313 

Storage Area=river           ,517200.3031553,1505844.3357637
Storage Area Surface Line= 77 
514528.5698496421505413.89020712                
514517.8029714351505607.57377506                
514634.7436950431505633.23868268                
514768.6801604421505736.79430712                
514873.8669964271505783.96074388                
514871.0163809521505896.96672866                
514775.2024966451506218.83750125                
514915.2100954841506630.87843194                
 515186.68998951 1506675.4757535                
515382.7904415181506675.90936758                
515775.0939418621506644.02162653                
516071.7308560911506637.07404645                
516358.8056458691506736.89466674                
516645.6897307271506805.92798718                
516929.9617183531506840.66684353                
517173.733589997 1506752.1903941                
 517416.11713716  1506592.744626                
517770.720756028 1506815.5580109                
518031.654714535 1506955.9199926                
518374.8614500321507020.41669934                
518605.7136908641507129.60830442                
  518700.91511821507125.48988383                
519014.8115681311507167.90403418                
519315.9996170651507151.56506052                
519430.4541274911506903.43579076                
519391.8740510881506471.31343108                
519351.2691125951506073.25977929                
 519251.720685641505861.88711361                
519131.4025410141505803.38779948                
519106.8031360591505717.30696473                
 519130.34436904 1505682.2486685                
519184.5108502671505627.81087453                
519201.6682395491505576.83321308                
519225.8898248061505478.47492724                
519221.1194087881505436.76690071                
519243.8379056221505411.22248924                
519240.0366046141505394.75792774                
519287.5729476231505381.32863493                
519352.202553679 1505421.9268669                
519497.7094049991505459.88517594                
519504.0357898381505251.11447622                
519466.077480799 1505168.8714733                
519333.223399159 1505137.2395491                
519137.1054691211505092.95485522                
519069.4253722961505064.77309918                
519071.1810450691505039.28068329                
 519065.804557851505013.29233814                
519030.8723235721504967.47063954                
518965.4892328021504845.20073349                
518828.3777276911504666.92870865                
518577.5038453211504505.80509606                
517961.3698214391504457.03909391                
517705.041578773  1504514.010957                
517698.073728118 1505060.8868512                
517680.4526410771505342.26647132                
517307.7928324531505259.11193159                
517190.6375324131505221.80603638                
516858.5977596751505240.81642968                
516505.3293756961505271.89495522                
516357.6739363011505363.74147751                
516281.9852024251505505.63480528                
516290.2322911371505700.28779986                
516285.3708417631505769.75865371                
516271.9259146571505797.65767498                
516240.7497588641505798.67771661                
516222.2537140551505739.18905463                
516212.9884298181505699.99514008                
516147.1044251721505580.45934199                
516106.881963053 1505485.0407351                
 515901.731782171505398.22827663                
515725.2820000351505354.00080759                
515525.072142831 1505201.9917628                
515330.1941456931505168.27878804                
515199.6473988941505152.57363267                
514693.4896365131505061.76555451                
514545.6631126881505212.48745676                
514528.5698496421505413.89020712                
Storage Area Type= 1 
Storage Area Area=
Storage Area Min Elev=
Storage Area Is2D=-1
Storage Area Point Generation Data=0,0,10,10
Storage Area 2D Points= 81231 
519002.8029714351507162.90403418519012.8029714351507162.90403418
519022.8029714351507162.90403418519032.8029714351507162.90403418
519042.8029714351507162.90403418519052.8029714351507162.90403418
518922.8029714351507152.90403418518932.8029714351507152.90403418
518942.8029714351507152.90403418518952.8029714351507152.90403418
518962.8029714351507152.90403418518972.8029714351507152.90403418
518982.8029714351507152.90403418518992.8029714351507152.90403418
519002.8029714351507152.90403418519012.8029714351507152.90403418
519022.8029714351507152.90403418519032.8029714351507152.90403418
519042.8029714351507152.90403418519052.8029714351507152.90403418
519062.8029714351507152.90403418519072.8029714351507152.90403418
519082.8029714351507152.90403418519092.8029714351507152.90403418
519102.8029714351507152.90403418519112.8029714351507152.90403418
519122.8029714351507152.90403418519132.8029714351507152.90403418
519142.8029714351507152.90403418519152.8029714351507152.90403418
519162.8029714351507152.90403418519172.8029714351507152.90403418
519182.8029714351507152.90403418519192.8029714351507152.90403418
519202.8029714351507152.90403418519212.8029714351507152.90403418
519222.8029714351507152.90403418519232.8029714351507152.90403418
519242.8029714351507152.90403418518852.8029714351507142.90403418
518862.8029714351507142.90403418518872.8029714351507142.90403418
518882.8029714351507142.90403418518892.8029714351507142.90403418
518902.8029714351507142.90403418518912.8029714351507142.90403418
518922.8029714351507142.90403418518932.8029714351507142.90403418
518942.8029714351507142.90403418518952.8029714351507142.90403418
518962.8029714351507142.90403418518972.8029714351507142.90403418
518982.8029714351507142.90403418518992.8029714351507142.90403418
519002.8029714351507142.90403418519012.8029714351507142.90403418
519022.8029714351507142.90403418519032.8029714351507142.90403418
519042.8029714351507142.90403418519052.8029714351507142.90403418
519062.8029714351507142.90403418519072.8029714351507142.90403418
519082.8029714351507142.90403418519092.8029714351507142.90403418
519102.8029714351507142.90403418519112.8029714351507142.90403418
519122.8029714351507142.90403418519132.8029714351507142.90403418
519142.8029714351507142.90403418519152.8029714351507142.90403418
519162.8029714351507142.90403418519172.8029714351507142.90403418
519182.8029714351507142.90403418519192.8029714351507142.90403418
519202.8029714351507142.90403418519212.8029714351507142.90403418
519222.8029714351507142.90403418519232.8029714351507142.90403418
519242.8029714351507142.90403418519252.8029714351507142.90403418
519262.8029714351507142.90403418519272.8029714351507142.90403418
519282.8029714351507142.90403418519292.8029714351507142.90403418
519302.8029714351507142.90403418519312.8029714351507142.90403418
518782.8029714351507132.90403418518792.8029714351507132.90403418
518802.8029714351507132.90403418518812.8029714351507132.90403418
518822.8029714351507132.90403418518832.8029714351507132.90403418
518842.8029714351507132.90403418518852.8029714351507132.90403418
518862.8029714351507132.90403418518872.8029714351507132.90403418
518882.8029714351507132.90403418518892.8029714351507132.90403418
518902.8029714351507132.90403418518912.8029714351507132.90403418
518922.8029714351507132.90403418518932.8029714351507132.90403418
518942.8029714351507132.90403418518952.8029714351507132.90403418
518962.8029714351507132.90403418518972.8029714351507132.90403418
518982.8029714351507132.90403418518992.8029714351507132.90403418
519002.8029714351507132.90403418519012.8029714351507132.90403418
519022.8029714351507132.90403418519032.8029714351507132.90403418
519042.8029714351507132.90403418519052.8029714351507132.90403418
519062.8029714351507132.90403418519072.8029714351507132.90403418
519082.8029714351507132.90403418519092.8029714351507132.90403418
519102.8029714351507132.90403418519112.8029714351507132.90403418
519122.8029714351507132.90403418519132.8029714351507132.90403418
519142.8029714351507132.90403418519152.8029714351507132.90403418
519162.8029714351507132.90403418519172.8029714351507132.90403418
519182.8029714351507132.90403418519192.8029714351507132.90403418
519202.8029714351507132.90403418519212.8029714351507132.90403418
519222.8029714351507132.90403418519232.8029714351507132.90403418
519242.8029714351507132.90403418519252.8029714351507132.90403418
519262.8029714351507132.90403418519272.8029714351507132.90403418
519282.8029714351507132.90403418519292.8029714351507132.90403418
519302.8029714351507132.90403418519312.8029714351507132.90403418
518602.8029714351507122.90403418518612.8029714351507122.90403418
518622.8029714351507122.90403418518632.8029714351507122.90403418
518642.8029714351507122.90403418518652.8029714351507122.90403418
518662.8029714351507122.90403418518672.8029714351507122.90403418
518682.8029714351507122.90403418518692.8029714351507122.90403418
518702.8029714351507122.90403418518712.8029714351507122.90403418
518722.8029714351507122.90403418518732.8029714351507122.90403418
518742.8029714351507122.90403418518752.8029714351507122.90403418
518762.8029714351507122.90403418518772.8029714351507122.90403418
518782.8029714351507122.90403418518792.8029714351507122.90403418
518802.8029714351507122.90403418518812.8029714351507122.90403418
518822.8029714351507122.90403418518832.8029714351507122.90403418
518842.8029714351507122.90403418518852.8029714351507122.90403418
518862.8029714351507122.90403418518872.8029714351507122.90403418
518882.8029714351507122.90403418518892.8029714351507122.90403418
518902.8029714351507122.90403418518912.8029714351507122.90403418
518922.8029714351507122.90403418518932.8029714351507122.90403418
518942.8029714351507122.90403418518952.8029714351507122.90403418
518962.8029714351507122.90403418518972.8029714351507122.90403418
518982.8029714351507122.90403418518992.8029714351507122.90403418
519002.8029714351507122.90403418519012.8029714351507122.90403418
519022.8029714351507122.90403418519032.8029714351507122.90403418
519042.8029714351507122.90403418519052.8029714351507122.90403418
519062.8029714351507122.90403418519072.8029714351507122.90403418
519082.8029714351507122.90403418519092.8029714351507122.90403418
519102.8029714351507122.90403418519112.8029714351507122.90403418
519122.8029714351507122.90403418519132.8029714351507122.90403418
519142.8029714351507122.90403418519152.8029714351507122.90403418
519162.8029714351507122.90403418519172.8029714351507122.90403418
519182.8029714351507122.90403418519192.8029714351507122.90403418
519202.8029714351507122.90403418519212.8029714351507122.90403418
519222.8029714351507122.90403418519232.8029714351507122.90403418
519242.8029714351507122.90403418519252.8029714351507122.90403418
519262.8029714351507122.90403418519272.8029714351507122.90403418
519282.8029714351507122.90403418519292.8029714351507122.90403418
519302.8029714351507122.90403418519312.8029714351507122.90403418
519322.8029714351507122.90403418518582.8029714351507112.90403418
518592.8029714351507112.90403418518602.8029714351507112.90403418
518612.8029714351507112.90403418518622.8029714351507112.90403418
518632.8029714351507112.90403418518642.8029714351507112.90403418
518652.8029714351507112.90403418518662.8029714351507112.90403418
518672.8029714351507112.90403418518682.8029714351507112.90403418
518692.8029714351507112.90403418518702.8029714351507112.90403418
518712.8029714351507112.90403418518722.8029714351507112.90403418
518732.8029714351507112.90403418518742.8029714351507112.90403418
518752.8029714351507112.90403418518762.8029714351507112.90403418
518772.8029714351507112.90403418518782.8029714351507112.90403418
518792.8029714351507112.90403418518802.8029714351507112.90403418
518812.8029714351507112.90403418518822.8029714351507112.90403418
518832.8029714351507112.90403418518842.8029714351507112.90403418
518852.8029714351507112.90403418518862.8029714351507112.90403418
518872.8029714351507112.90403418518882.8029714351507112.90403418
518892.8029714351507112.90403418518902.8029714351507112.90403418
518912.8029714351507112.90403418518922.8029714351507112.90403418
518932.8029714351507112.90403418518942.8029714351507112.90403418
518952.8029714351507112.90403418518962.8029714351507112.90403418
518972.8029714351507112.90403418518982.8029714351507112.90403418
518992.8029714351507112.90403418519002.8029714351507112.90403418
519012.8029714351507112.90403418519022.8029714351507112.90403418
519032.8029714351507112.90403418519042.8029714351507112.90403418
519052.8029714351507112.90403418519062.8029714351507112.90403418
519072.8029714351507112.90403418519082.8029714351507112.90403418
519092.8029714351507112.90403418519102.8029714351507112.90403418
519112.8029714351507112.90403418519122.8029714351507112.90403418
519132.8029714351507112.90403418519142.8029714351507112.90403418
519152.8029714351507112.90403418519162.8029714351507112.90403418
519172.8029714351507112.90403418519182.8029714351507112.90403418
519192.8029714351507112.90403418519202.8029714351507112.90403418
519212.8029714351507112.90403418519222.8029714351507112.90403418
519232.8029714351507112.90403418519242.8029714351507112.90403418
519252.8029714351507112.90403418519262.8029714351507112.90403418
519272.8029714351507112.90403418519282.8029714351507112.90403418
519292.8029714351507112.90403418519302.8029714351507112.90403418
519312.8029714351507112.90403418519322.8029714351507112.90403418
518562.8029714351507102.90403418518572.8029714351507102.90403418
518582.8029714351507102.90403418518592.8029714351507102.90403418
518602.8029714351507102.90403418518612.8029714351507102.90403418
518622.8029714351507102.90403418518632.8029714351507102.90403418
518642.8029714351507102.90403418518652.8029714351507102.90403418
518662.8029714351507102.90403418518672.8029714351507102.90403418
518682.8029714351507102.90403418518692.8029714351507102.90403418
518702.8029714351507102.90403418518712.8029714351507102.90403418
518722.8029714351507102.90403418518732.8029714351507102.90403418
518742.8029714351507102.90403418518752.8029714351507102.90403418
518762.8029714351507102.90403418518772.8029714351507102.90403418
518782.8029714351507102.90403418518792.8029714351507102.90403418
518802.8029714351507102.90403418518812.8029714351507102.90403418
518822.8029714351507102.90403418518832.8029714351507102.90403418
518842.8029714351507102.90403418518852.8029714351507102.90403418
518862.8029714351507102.90403418518872.8029714351507102.90403418
518882.8029714351507102.90403418518892.8029714351507102.90403418
518902.8029714351507102.90403418518912.8029714351507102.90403418
518922.8029714351507102.90403418518932.8029714351507102.90403418
518942.8029714351507102.90403418518952.8029714351507102.90403418
518962.8029714351507102.90403418518972.8029714351507102.90403418
518982.8029714351507102.90403418518992.8029714351507102.90403418
519002.8029714351507102.90403418519012.8029714351507102.90403418
519022.8029714351507102.90403418519032.8029714351507102.90403418
519042.8029714351507102.90403418519052.8029714351507102.90403418
519062.8029714351507102.90403418519072.8029714351507102.90403418
519082.8029714351507102.90403418519092.8029714351507102.90403418
519102.8029714351507102.90403418519112.8029714351507102.90403418
519122.8029714351507102.90403418519132.8029714351507102.90403418
519142.8029714351507102.90403418519152.8029714351507102.90403418
519162.8029714351507102.90403418519172.8029714351507102.90403418
519182.8029714351507102.90403418519192.8029714351507102.90403418
519202.8029714351507102.90403418519212.8029714351507102.90403418
519222.8029714351507102.90403418519232.8029714351507102.90403418
519242.8029714351507102.90403418519252.8029714351507102.90403418
519262.8029714351507102.90403418519272.8029714351507102.90403418
519282.8029714351507102.90403418519292.8029714351507102.90403418
519302.8029714351507102.90403418519312.8029714351507102.90403418
519322.8029714351507102.90403418519332.8029714351507102.90403418
518542.8029714351507092.90403418518552.8029714351507092.90403418
518562.8029714351507092.90403418518572.8029714351507092.90403418
518582.8029714351507092.90403418518592.8029714351507092.90403418
518602.8029714351507092.90403418518612.8029714351507092.90403418
518622.8029714351507092.90403418518632.8029714351507092.90403418
518642.8029714351507092.90403418518652.8029714351507092.90403418
518662.8029714351507092.90403418518672.8029714351507092.90403418
518682.8029714351507092.90403418518692.8029714351507092.90403418
518702.8029714351507092.90403418518712.8029714351507092.90403418
518722.8029714351507092.90403418518732.8029714351507092.90403418
518742.8029714351507092.90403418518752.8029714351507092.90403418
518762.8029714351507092.90403418518772.8029714351507092.90403418
518782.8029714351507092.90403418518792.8029714351507092.90403418
518802.8029714351507092.90403418518812.8029714351507092.90403418
518822.8029714351507092.90403418518832.8029714351507092.90403418
518842.8029714351507092.90403418518852.8029714351507092.90403418
518862.8029714351507092.90403418518872.8029714351507092.90403418
518882.8029714351507092.90403418518892.8029714351507092.90403418
518902.8029714351507092.90403418518912.8029714351507092.90403418
518922.8029714351507092.90403418518932.8029714351507092.90403418
518942.8029714351507092.90403418518952.8029714351507092.90403418
518962.8029714351507092.90403418518972.8029714351507092.90403418
518982.8029714351507092.90403418518992.8029714351507092.90403418
519002.8029714351507092.90403418519012.8029714351507092.90403418
519022.8029714351507092.90403418519032.8029714351507092.90403418
519042.8029714351507092.90403418519052.8029714351507092.90403418
519062.8029714351507092.90403418519072.8029714351507092.90403418
519082.8029714351507092.90403418519092.8029714351507092.90403418
519102.8029714351507092.90403418519112.8029714351507092.90403418
519122.8029714351507092.90403418519132.8029714351507092.90403418
519142.8029714351507092.90403418519152.8029714351507092.90403418
519162.8029714351507092.90403418519172.8029714351507092.90403418
519182.8029714351507092.90403418519192.8029714351507092.90403418
519202.8029714351507092.90403418519212.8029714351507092.90403418
519222.8029714351507092.90403418519232.8029714351507092.90403418
519242.8029714351507092.90403418519252.8029714351507092.90403418
519262.8029714351507092.90403418519272.8029714351507092.90403418
519282.8029714351507092.90403418519292.8029714351507092.90403418
519302.8029714351507092.90403418519312.8029714351507092.90403418
519322.8029714351507092.90403418519332.8029714351507092.90403418
518522.8029714351507082.90403418518532.8029714351507082.90403418
518542.8029714351507082.90403418518552.8029714351507082.90403418
518562.8029714351507082.90403418518572.8029714351507082.90403418
518582.8029714351507082.90403418518592.8029714351507082.90403418
518602.8029714351507082.90403418518612.8029714351507082.90403418
518622.8029714351507082.90403418518632.8029714351507082.90403418
518642.8029714351507082.90403418518652.8029714351507082.90403418
518662.8029714351507082.90403418518672.8029714351507082.90403418
518682.8029714351507082.90403418518692.8029714351507082.90403418
518702.8029714351507082.90403418518712.8029714351507082.90403418
518722.8029714351507082.90403418518732.8029714351507082.90403418
518742.8029714351507082.90403418518752.8029714351507082.90403418
518762.8029714351507082.90403418518772.8029714351507082.90403418
518782.8029714351507082.90403418518792.8029714351507082.90403418
518802.8029714351507082.90403418518812.8029714351507082.90403418
518822.8029714351507082.90403418518832.8029714351507082.90403418
518842.8029714351507082.90403418518852.8029714351507082.90403418
518862.8029714351507082.90403418518872.8029714351507082.90403418
518882.8029714351507082.90403418518892.8029714351507082.90403418
518902.8029714351507082.90403418518912.8029714351507082.90403418
518922.8029714351507082.90403418518932.8029714351507082.90403418
518942.8029714351507082.90403418518952.8029714351507082.90403418
518962.8029714351507082.90403418518972.8029714351507082.90403418
518982.8029714351507082.90403418518992.8029714351507082.90403418
519002.8029714351507082.90403418519012.8029714351507082.90403418
519022.8029714351507082.90403418519032.8029714351507082.90403418
519042.8029714351507082.90403418519052.8029714351507082.90403418
519062.8029714351507082.90403418519072.8029714351507082.90403418
519082.8029714351507082.90403418519092.8029714351507082.90403418
519102.8029714351507082.90403418519112.8029714351507082.90403418
519122.8029714351507082.90403418519132.8029714351507082.90403418
519142.8029714351507082.90403418519152.8029714351507082.90403418
519162.8029714351507082.90403418519172.8029714351507082.90403418
519182.8029714351507082.90403418519192.8029714351507082.90403418
519202.8029714351507082.90403418519212.8029714351507082.90403418
519222.8029714351507082.90403418519232.8029714351507082.90403418
519242.8029714351507082.90403418519252.8029714351507082.90403418
519262.8029714351507082.90403418519272.8029714351507082.90403418
519282.8029714351507082.90403418519292.8029714351507082.90403418
519302.8029714351507082.90403418519312.8029714351507082.90403418
519322.8029714351507082.90403418519332.8029714351507082.90403418
519342.8029714351507082.90403418518492.8029714351507072.90403418
518502.8029714351507072.90403418518512.8029714351507072.90403418
518522.8029714351507072.90403418518532.8029714351507072.90403418
518542.8029714351507072.90403418518552.8029714351507072.90403418
518562.8029714351507072.90403418518572.8029714351507072.90403418
518582.8029714351507072.90403418518592.8029714351507072.90403418
518602.8029714351507072.90403418518612.8029714351507072.90403418
518622.8029714351507072.90403418518632.8029714351507072.90403418
518642.8029714351507072.90403418518652.8029714351507072.90403418
518662.8029714351507072.90403418518672.8029714351507072.90403418
518682.8029714351507072.90403418518692.8029714351507072.90403418
518702.8029714351507072.90403418518712.8029714351507072.90403418
518722.8029714351507072.90403418518732.8029714351507072.90403418
518742.8029714351507072.90403418518752.8029714351507072.90403418
518762.8029714351507072.90403418518772.8029714351507072.90403418
518782.8029714351507072.90403418518792.8029714351507072.90403418
518802.8029714351507072.90403418518812.8029714351507072.90403418
518822.8029714351507072.90403418518832.8029714351507072.90403418
518842.8029714351507072.90403418518852.8029714351507072.90403418
518862.8029714351507072.90403418518872.8029714351507072.90403418
518882.8029714351507072.90403418518892.8029714351507072.90403418
518902.8029714351507072.90403418518912.8029714351507072.90403418
518922.8029714351507072.90403418518932.8029714351507072.90403418
518942.8029714351507072.90403418518952.8029714351507072.90403418
518962.8029714351507072.90403418518972.8029714351507072.90403418
518982.8029714351507072.90403418518992.8029714351507072.90403418
519002.8029714351507072.90403418519012.8029714351507072.90403418
519022.8029714351507072.90403418519032.8029714351507072.90403418
519042.8029714351507072.90403418519052.8029714351507072.90403418
519062.8029714351507072.90403418519072.8029714351507072.90403418
519082.8029714351507072.90403418519092.8029714351507072.90403418
519102.8029714351507072.90403418519112.8029714351507072.90403418
519122.8029714351507072.90403418519132.8029714351507072.90403418
519142.8029714351507072.90403418519152.8029714351507072.90403418
519162.8029714351507072.90403418519172.8029714351507072.90403418
519182.8029714351507072.90403418519192.8029714351507072.90403418
519202.8029714351507072.90403418519212.8029714351507072.90403418
519222.8029714351507072.90403418519232.8029714351507072.90403418
519242.8029714351507072.90403418519252.8029714351507072.90403418
519262.8029714351507072.90403418519272.8029714351507072.90403418
519282.8029714351507072.90403418519292.8029714351507072.90403418
519302.8029714351507072.90403418519312.8029714351507072.90403418
519322.8029714351507072.90403418519332.8029714351507072.90403418
519342.8029714351507072.90403418518472.8029714351507062.90403418
518482.8029714351507062.90403418518492.8029714351507062.90403418
518502.8029714351507062.90403418518512.8029714351507062.90403418
518522.8029714351507062.90403418518532.8029714351507062.90403418
518542.8029714351507062.90403418518552.8029714351507062.90403418
518562.8029714351507062.90403418518572.8029714351507062.90403418
518582.8029714351507062.90403418518592.8029714351507062.90403418
518602.8029714351507062.90403418518612.8029714351507062.90403418
518622.8029714351507062.90403418518632.8029714351507062.90403418
518642.8029714351507062.90403418518652.8029714351507062.90403418
518662.8029714351507062.90403418518672.8029714351507062.90403418
518682.8029714351507062.90403418518692.8029714351507062.90403418
518702.8029714351507062.90403418518712.8029714351507062.90403418
518722.8029714351507062.90403418518732.8029714351507062.90403418
518742.8029714351507062.90403418518752.8029714351507062.90403418
518762.8029714351507062.90403418518772.8029714351507062.90403418
518782.8029714351507062.90403418518792.8029714351507062.90403418
518802.8029714351507062.90403418518812.8029714351507062.90403418
518822.8029714351507062.90403418518832.8029714351507062.90403418
518842.8029714351507062.90403418518852.8029714351507062.90403418
518862.8029714351507062.90403418518872.8029714351507062.90403418
518882.8029714351507062.90403418518892.8029714351507062.90403418
518902.8029714351507062.90403418518912.8029714351507062.90403418
518922.8029714351507062.90403418518932.8029714351507062.90403418
518942.8029714351507062.90403418518952.8029714351507062.90403418
518962.8029714351507062.90403418518972.8029714351507062.90403418
518982.8029714351507062.90403418518992.8029714351507062.90403418
519002.8029714351507062.90403418519012.8029714351507062.90403418
519022.8029714351507062.90403418519032.8029714351507062.90403418
519042.8029714351507062.90403418519052.8029714351507062.90403418
519062.8029714351507062.90403418519072.8029714351507062.90403418
519082.8029714351507062.90403418519092.8029714351507062.90403418
519102.8029714351507062.90403418519112.8029714351507062.90403418
519122.8029714351507062.90403418519132.8029714351507062.90403418
519142.8029714351507062.90403418519152.8029714351507062.90403418
519162.8029714351507062.90403418519172.8029714351507062.90403418
519182.8029714351507062.90403418519192.8029714351507062.90403418
519202.8029714351507062.90403418519212.8029714351507062.90403418
519222.8029714351507062.90403418519232.8029714351507062.90403418
519242.8029714351507062.90403418519252.8029714351507062.90403418
519262.8029714351507062.90403418519272.8029714351507062.90403418
519282.8029714351507062.90403418519292.8029714351507062.90403418
519302.8029714351507062.90403418519312.8029714351507062.90403418
519322.8029714351507062.90403418519332.8029714351507062.90403418
519342.8029714351507062.90403418519352.8029714351507062.90403418
518452.8029714351507052.90403418518462.8029714351507052.90403418
518472.8029714351507052.90403418518482.8029714351507052.90403418
518492.8029714351507052.90403418518502.8029714351507052.90403418
518512.8029714351507052.90403418518522.8029714351507052.90403418
518532.8029714351507052.90403418518542.8029714351507052.90403418
518552.8029714351507052.90403418518562.8029714351507052.90403418
518572.8029714351507052.90403418518582.8029714351507052.90403418
518592.8029714351507052.90403418518602.8029714351507052.90403418
518612.8029714351507052.90403418518622.8029714351507052.90403418
518632.8029714351507052.90403418518642.8029714351507052.90403418
518652.8029714351507052.90403418518662.8029714351507052.90403418
518672.8029714351507052.90403418518682.8029714351507052.90403418
518692.8029714351507052.90403418518702.8029714351507052.90403418
518712.8029714351507052.90403418518722.8029714351507052.90403418
518732.8029714351507052.90403418518742.8029714351507052.90403418
518752.8029714351507052.90403418518762.8029714351507052.90403418
518772.8029714351507052.90403418518782.8029714351507052.90403418
518792.8029714351507052.90403418518802.8029714351507052.90403418
518812.8029714351507052.90403418518822.8029714351507052.90403418
518832.8029714351507052.90403418518842.8029714351507052.90403418
518852.8029714351507052.90403418518862.8029714351507052.90403418
518872.8029714351507052.90403418518882.8029714351507052.90403418
518892.8029714351507052.90403418518902.8029714351507052.90403418
518912.8029714351507052.90403418518922.8029714351507052.90403418
518932.8029714351507052.90403418518942.8029714351507052.90403418
518952.8029714351507052.90403418518962.8029714351507052.90403418
518972.8029714351507052.90403418518982.8029714351507052.90403418
518992.8029714351507052.90403418519002.8029714351507052.90403418
519012.8029714351507052.90403418519022.8029714351507052.90403418
519032.8029714351507052.90403418519042.8029714351507052.90403418
519052.8029714351507052.90403418519062.8029714351507052.90403418
519072.8029714351507052.90403418519082.8029714351507052.90403418
519092.8029714351507052.90403418519102.8029714351507052.90403418
519112.8029714351507052.90403418519122.8029714351507052.90403418
519132.8029714351507052.90403418519142.8029714351507052.90403418
519152.8029714351507052.90403418519162.8029714351507052.90403418
519172.8029714351507052.90403418519182.8029714351507052.90403418
519192.8029714351507052.90403418519202.8029714351507052.90403418
519212.8029714351507052.90403418519222.8029714351507052.90403418
519232.8029714351507052.90403418519242.8029714351507052.90403418
519252.8029714351507052.90403418519262.8029714351507052.90403418
519272.8029714351507052.90403418519282.8029714351507052.90403418
519292.8029714351507052.90403418519302.8029714351507052.90403418
519312.8029714351507052.90403418519322.8029714351507052.90403418
519332.8029714351507052.90403418519342.8029714351507052.90403418