Geom Title=geo
Program Version=6.70
Viewing Rectangle= 514472.3567 , 519575.5414 , 1507278.8647 , 1504387.70682814 

Storage Area=river           ,517009.5471433,1505571.8444971
Storage Area Surface Line= 64 
514534.5166154751505507.47694481                
514547.1693851541505513.80332965                
514540.8430003141505513.80332965                
514604.1068487141505570.74079321                
514800.2247787531505634.00464161                
515034.3010178321505741.55318389                
 515306.335565951505785.83787777                
515755.5088895871505811.14341713                
515964.2795893061505893.38642005                
516052.8489770661506038.89327137                
516185.7030587051506140.11542881                
516356.5154493841506159.09458333                
516495.6959158631506051.54604105                
516571.6125339431505874.40726553                
516539.9806097431505640.33102645                
516584.2653036231505602.37271741                
516641.2027671821505652.98379613                
 516938.542854661505716.24764453                
517122.0080150191505652.98379613                
517387.7161782981505634.00464161                
517868.5214261351505716.24764453                
518096.2712803741505773.18510809                
518191.1670529731505741.55318389                
518355.6530588121505596.04633257                
518456.8752162521505507.47694481                
518577.0765282111505456.86586609                
 518728.909764371505507.47694481                
518880.7430005291505589.71994773                
518988.2915428091505539.10886901                
519070.5345457281505393.60201769                
519216.0413970471505349.31732381                
519355.2218635261505418.90755705                
519500.7287148461505456.86586609                
519507.0550996861505248.09516637                
519469.0967906461505165.85216345                
519336.2427090061505134.22023925                
519140.1247789681505089.93554537                
518969.3123882891505178.50493313                
518893.3957702091505305.03262993                
 518817.479152131505380.94924801                
 518722.583379531505324.01178445                
518482.1807556121505254.42155121                
518279.7364407331505368.29647833                
518153.2087439331505526.45609933                
517931.7852745351505564.41440837                
517710.3618051361505494.82417513                
 517020.785857581505488.49779029                
516786.7096185011505412.58117221                
516508.3486855431505330.33816929                
516381.8209887441505412.58117221                
516286.9252161441505539.10886901                
516293.2516009841505697.26849001                
516324.8835251841505830.12257165                
516324.8835251841505906.03918973                
516255.2932919441505874.40726553                
516166.7239041851505747.87956873                
515983.2587438261505621.35187193                
515742.8561199071505558.08802353                
515470.8215717891505558.08802353                
515198.7870236711505532.78248417                
515040.6274026721505482.17140545                
514781.2456242331505355.64370865                
514528.1902306351505279.72709057                
514534.5166154751505507.47694481                
Storage Area Type= 1 
Storage Area Area=
Storage Area Min Elev=
Storage Area Is2D=-1
Storage Area Point Generation Data=0,0,10,10
Storage Area 2D Points= 12848 
516343.1902306351506154.09458333516353.1902306351506154.09458333
516253.1902306351506144.09458333516263.1902306351506144.09458333
516273.1902306351506144.09458333516283.1902306351506144.09458333
516293.1902306351506144.09458333516303.1902306351506144.09458333
516313.1902306351506144.09458333516323.1902306351506144.09458333
516333.1902306351506144.09458333516343.1902306351506144.09458333
516353.1902306351506144.09458333516363.1902306351506144.09458333
516183.1902306351506134.09458333516193.1902306351506134.09458333
516203.1902306351506134.09458333516213.1902306351506134.09458333
516223.1902306351506134.09458333516233.1902306351506134.09458333
516243.1902306351506134.09458333516253.1902306351506134.09458333
516263.1902306351506134.09458333516273.1902306351506134.09458333
516283.1902306351506134.09458333516293.1902306351506134.09458333
516303.1902306351506134.09458333516313.1902306351506134.09458333
516323.1902306351506134.09458333516333.1902306351506134.09458333
516343.1902306351506134.09458333516353.1902306351506134.09458333
516363.1902306351506134.09458333516373.1902306351506134.09458333
516383.1902306351506134.09458333516173.1902306351506124.09458333
516183.1902306351506124.09458333516193.1902306351506124.09458333
516203.1902306351506124.09458333516213.1902306351506124.09458333
516223.1902306351506124.09458333516233.1902306351506124.09458333
516243.1902306351506124.09458333516253.1902306351506124.09458333
516263.1902306351506124.09458333516273.1902306351506124.09458333
516283.1902306351506124.09458333516293.1902306351506124.09458333
516303.1902306351506124.09458333516313.1902306351506124.09458333
516323.1902306351506124.09458333516333.1902306351506124.09458333
516343.1902306351506124.09458333516353.1902306351506124.09458333
516363.1902306351506124.09458333516373.1902306351506124.09458333
516383.1902306351506124.09458333516393.1902306351506124.09458333
516163.1902306351506114.09458333516173.1902306351506114.09458333
516183.1902306351506114.09458333516193.1902306351506114.09458333
516203.1902306351506114.09458333516213.1902306351506114.09458333
516223.1902306351506114.09458333516233.1902306351506114.09458333
516243.1902306351506114.09458333516253.1902306351506114.09458333
516263.1902306351506114.09458333516273.1902306351506114.09458333
516283.1902306351506114.09458333516293.1902306351506114.09458333
516303.1902306351506114.09458333516313.1902306351506114.09458333
516323.1902306351506114.09458333516333.1902306351506114.09458333
516343.1902306351506114.09458333516353.1902306351506114.09458333
516363.1902306351506114.09458333516373.1902306351506114.09458333
516383.1902306351506114.09458333516393.1902306351506114.09458333
516403.1902306351506114.09458333516143.1902306351506104.09458333
516153.1902306351506104.09458333516163.1902306351506104.09458333
516173.1902306351506104.09458333516183.1902306351506104.09458333
516193.1902306351506104.09458333516203.1902306351506104.09458333
516213.1902306351506104.09458333516223.1902306351506104.09458333
516233.1902306351506104.09458333516243.1902306351506104.09458333
516253.1902306351506104.09458333516263.1902306351506104.09458333
516273.1902306351506104.09458333516283.1902306351506104.09458333
516293.1902306351506104.09458333516303.1902306351506104.09458333
516313.1902306351506104.09458333516323.1902306351506104.09458333
516333.1902306351506104.09458333516343.1902306351506104.09458333
516353.1902306351506104.09458333516363.1902306351506104.09458333
516373.1902306351506104.09458333516383.1902306351506104.09458333
516393.1902306351506104.09458333516403.1902306351506104.09458333
516413.1902306351506104.09458333516423.1902306351506104.09458333
516133.1902306351506094.09458333516143.1902306351506094.09458333
516153.1902306351506094.09458333516163.1902306351506094.09458333
516173.1902306351506094.09458333516183.1902306351506094.09458333
516193.1902306351506094.09458333516203.1902306351506094.09458333
516213.1902306351506094.09458333516223.1902306351506094.09458333
516233.1902306351506094.09458333516243.1902306351506094.09458333
516253.1902306351506094.09458333516263.1902306351506094.09458333
516273.1902306351506094.09458333516283.1902306351506094.09458333
516293.1902306351506094.09458333516303.1902306351506094.09458333
516313.1902306351506094.09458333516323.1902306351506094.09458333
516333.1902306351506094.09458333516343.1902306351506094.09458333
516353.1902306351506094.09458333516363.1902306351506094.09458333
516373.1902306351506094.09458333516383.1902306351506094.09458333
516393.1902306351506094.09458333516403.1902306351506094.09458333
516413.1902306351506094.09458333516423.1902306351506094.09458333
516433.1902306351506094.09458333516123.1902306351506084.09458333
516133.1902306351506084.09458333516143.1902306351506084.09458333
516153.1902306351506084.09458333516163.1902306351506084.09458333
516173.1902306351506084.09458333516183.1902306351506084.09458333
516193.1902306351506084.09458333516203.1902306351506084.09458333
516213.1902306351506084.09458333516223.1902306351506084.09458333
516233.1902306351506084.09458333516243.1902306351506084.09458333
516253.1902306351506084.09458333516263.1902306351506084.09458333
516273.1902306351506084.09458333516283.1902306351506084.09458333
516293.1902306351506084.09458333516303.1902306351506084.09458333
516313.1902306351506084.09458333516323.1902306351506084.09458333
516333.1902306351506084.09458333516343.1902306351506084.09458333
516353.1902306351506084.09458333516363.1902306351506084.09458333
516373.1902306351506084.09458333516383.1902306351506084.09458333
516393.1902306351506084.09458333516403.1902306351506084.09458333
516413.1902306351506084.09458333516423.1902306351506084.09458333
516433.1902306351506084.09458333516443.1902306351506084.09458333
516103.1902306351506074.09458333516113.1902306351506074.09458333
516123.1902306351506074.09458333516133.1902306351506074.09458333
516143.1902306351506074.09458333516153.1902306351506074.09458333
516163.1902306351506074.09458333516173.1902306351506074.09458333
516183.1902306351506074.09458333516193.1902306351506074.09458333
516203.1902306351506074.09458333516213.1902306351506074.09458333
516223.1902306351506074.09458333516233.1902306351506074.09458333
516243.1902306351506074.09458333516253.1902306351506074.09458333
516263.1902306351506074.09458333516273.1902306351506074.09458333
516283.1902306351506074.09458333516293.1902306351506074.09458333
516303.1902306351506074.09458333516313.1902306351506074.09458333
516323.1902306351506074.09458333516333.1902306351506074.09458333
516343.1902306351506074.09458333516353.1902306351506074.09458333
516363.1902306351506074.09458333516373.1902306351506074.09458333
516383.1902306351506074.09458333516393.1902306351506074.09458333
516403.1902306351506074.09458333516413.1902306351506074.09458333
516423.1902306351506074.09458333516433.1902306351506074.09458333
516443.1902306351506074.09458333516453.1902306351506074.09458333
516093.1902306351506064.09458333516103.1902306351506064.09458333
516113.1902306351506064.09458333516123.1902306351506064.09458333
516133.1902306351506064.09458333516143.1902306351506064.09458333
516153.1902306351506064.09458333516163.1902306351506064.09458333
516173.1902306351506064.09458333516183.1902306351506064.09458333
516193.1902306351506064.09458333516203.1902306351506064.09458333
516213.1902306351506064.09458333516223.1902306351506064.09458333
516233.1902306351506064.09458333516243.1902306351506064.09458333
516253.1902306351506064.09458333516263.1902306351506064.09458333
516273.1902306351506064.09458333516283.1902306351506064.09458333
516293.1902306351506064.09458333516303.1902306351506064.09458333
516313.1902306351506064.09458333516323.1902306351506064.09458333
516333.1902306351506064.09458333516343.1902306351506064.09458333
516353.1902306351506064.09458333516363.1902306351506064.09458333
516373.1902306351506064.09458333516383.1902306351506064.09458333
516393.1902306351506064.09458333516403.1902306351506064.09458333
516413.1902306351506064.09458333516423.1902306351506064.09458333
516433.1902306351506064.09458333516443.1902306351506064.09458333
516453.1902306351506064.09458333516463.1902306351506064.09458333
516473.1902306351506064.09458333516083.1902306351506054.09458333
516093.1902306351506054.09458333516103.1902306351506054.09458333
516113.1902306351506054.09458333516123.1902306351506054.09458333
516133.1902306351506054.09458333516143.1902306351506054.09458333
516153.1902306351506054.09458333516163.1902306351506054.09458333
516173.1902306351506054.09458333516183.1902306351506054.09458333
516193.1902306351506054.09458333516203.1902306351506054.09458333
516213.1902306351506054.09458333516223.1902306351506054.09458333
516233.1902306351506054.09458333516243.1902306351506054.09458333
516253.1902306351506054.09458333516263.1902306351506054.09458333
516273.1902306351506054.09458333516283.1902306351506054.09458333
516293.1902306351506054.09458333516303.1902306351506054.09458333
516313.1902306351506054.09458333516323.1902306351506054.09458333
516333.1902306351506054.09458333516343.1902306351506054.09458333
516353.1902306351506054.09458333516363.1902306351506054.09458333
516373.1902306351506054.09458333516383.1902306351506054.09458333
516393.1902306351506054.09458333516403.1902306351506054.09458333
516413.1902306351506054.09458333516423.1902306351506054.09458333
516433.1902306351506054.09458333516443.1902306351506054.09458333
516453.1902306351506054.09458333516463.1902306351506054.09458333
516473.1902306351506054.09458333516483.1902306351506054.09458333
516073.1902306351506044.09458333516083.1902306351506044.09458333
516093.1902306351506044.09458333516103.1902306351506044.09458333
516113.1902306351506044.09458333516123.1902306351506044.09458333
516133.1902306351506044.09458333516143.1902306351506044.09458333
516153.1902306351506044.09458333516163.1902306351506044.09458333
516173.1902306351506044.09458333516183.1902306351506044.09458333
516193.1902306351506044.09458333516203.1902306351506044.09458333
516213.1902306351506044.09458333516223.1902306351506044.09458333
516233.1902306351506044.09458333516243.1902306351506044.09458333
516253.1902306351506044.09458333516263.1902306351506044.09458333
516273.1902306351506044.09458333516283.1902306351506044.09458333
516293.1902306351506044.09458333516303.1902306351506044.09458333
516313.1902306351506044.09458333516323.1902306351506044.09458333
516333.1902306351506044.09458333516343.1902306351506044.09458333
516353.1902306351506044.09458333516363.1902306351506044.09458333
516373.1902306351506044.09458333516383.1902306351506044.09458333
516393.1902306351506044.09458333516403.1902306351506044.09458333
516413.1902306351506044.09458333516423.1902306351506044.09458333
516433.1902306351506044.09458333516443.1902306351506044.09458333
516453.1902306351506044.09458333516463.1902306351506044.09458333
516473.1902306351506044.09458333516483.1902306351506044.09458333
516493.1902306351506044.09458333516053.1902306351506034.09458333
516063.1902306351506034.09458333516073.1902306351506034.09458333
516083.1902306351506034.09458333516093.1902306351506034.09458333
516103.1902306351506034.09458333516113.1902306351506034.09458333
516123.1902306351506034.09458333516133.1902306351506034.09458333
516143.1902306351506034.09458333516153.1902306351506034.09458333
516163.1902306351506034.09458333516173.1902306351506034.09458333
516183.1902306351506034.09458333516193.1902306351506034.09458333
516203.1902306351506034.09458333516213.1902306351506034.09458333
516223.1902306351506034.09458333516233.1902306351506034.09458333
516243.1902306351506034.09458333516253.1902306351506034.09458333
516263.1902306351506034.09458333516273.1902306351506034.09458333
516283.1902306351506034.09458333516293.1902306351506034.09458333
516303.1902306351506034.09458333516313.1902306351506034.09458333
516323.1902306351506034.09458333516333.1902306351506034.09458333
516343.1902306351506034.09458333516353.1902306351506034.09458333
516363.1902306351506034.09458333516373.1902306351506034.09458333
516383.1902306351506034.09458333516393.1902306351506034.09458333
516403.1902306351506034.09458333516413.1902306351506034.09458333
516423.1902306351506034.09458333516433.1902306351506034.09458333
516443.1902306351506034.09458333516453.1902306351506034.09458333
516463.1902306351506034.09458333516473.1902306351506034.09458333
516483.1902306351506034.09458333516493.1902306351506034.09458333
516053.1902306351506024.09458333516063.1902306351506024.09458333
516073.1902306351506024.09458333516083.1902306351506024.09458333
516093.1902306351506024.09458333516103.1902306351506024.09458333
516113.1902306351506024.09458333516123.1902306351506024.09458333
516133.1902306351506024.09458333516143.1902306351506024.09458333
516153.1902306351506024.09458333516163.1902306351506024.09458333
516173.1902306351506024.09458333516183.1902306351506024.09458333
516193.1902306351506024.09458333516203.1902306351506024.09458333
516213.1902306351506024.09458333516223.1902306351506024.09458333
516233.1902306351506024.09458333516243.1902306351506024.09458333
516253.1902306351506024.09458333516263.1902306351506024.09458333
516273.1902306351506024.09458333516283.1902306351506024.09458333
516293.1902306351506024.09458333516303.1902306351506024.09458333
516313.1902306351506024.09458333516323.1902306351506024.09458333
516333.1902306351506024.09458333516343.1902306351506024.09458333
516353.1902306351506024.09458333516363.1902306351506024.09458333
516373.1902306351506024.09458333516383.1902306351506024.09458333
516393.1902306351506024.09458333516403.1902306351506024.09458333
516413.1902306351506024.09458333516423.1902306351506024.09458333
516433.1902306351506024.09458333516443.1902306351506024.09458333
516453.1902306351506024.09458333516463.1902306351506024.09458333
516473.1902306351506024.09458333516483.1902306351506024.09458333
516493.1902306351506024.09458333516503.1902306351506024.09458333
516043.1902306351506014.09458333516053.1902306351506014.09458333
516063.1902306351506014.09458333516073.1902306351506014.09458333
516083.1902306351506014.09458333516093.1902306351506014.09458333
516103.1902306351506014.09458333516113.1902306351506014.09458333
516123.1902306351506014.09458333516133.1902306351506014.09458333
516143.1902306351506014.09458333516153.1902306351506014.09458333
516163.1902306351506014.09458333516173.1902306351506014.09458333
516183.1902306351506014.09458333516193.1902306351506014.09458333
516203.1902306351506014.09458333516213.1902306351506014.09458333
516223.1902306351506014.09458333516233.1902306351506014.09458333
516243.1902306351506014.09458333516253.1902306351506014.09458333
516263.1902306351506014.09458333516273.1902306351506014.09458333
516283.1902306351506014.09458333516293.1902306351506014.09458333
516303.1902306351506014.09458333516313.1902306351506014.09458333
516323.1902306351506014.09458333516333.1902306351506014.09458333
516343.1902306351506014.09458333516353.1902306351506014.09458333
516363.1902306351506014.09458333516373.1902306351506014.09458333
516383.1902306351506014.09458333516393.1902306351506014.09458333
516403.1902306351506014.09458333516413.1902306351506014.09458333
516423.1902306351506014.09458333516433.1902306351506014.09458333
516443.1902306351506014.09458333516453.1902306351506014.09458333
516463.1902306351506014.09458333516473.1902306351506014.09458333
516483.1902306351506014.09458333516493.1902306351506014.09458333
516503.1902306351506014.09458333516043.1902306351506004.09458333
516053.1902306351506004.09458333516063.1902306351506004.09458333
516073.1902306351506004.09458333516083.1902306351506004.09458333
516093.1902306351506004.09458333516103.1902306351506004.09458333
516113.1902306351506004.09458333516123.1902306351506004.09458333
516133.1902306351506004.09458333516143.1902306351506004.09458333
516153.1902306351506004.09458333516163.1902306351506004.09458333
516173.1902306351506004.09458333516183.1902306351506004.09458333
516193.1902306351506004.09458333516203.1902306351506004.09458333
516213.1902306351506004.09458333516223.1902306351506004.09458333
516233.1902306351506004.09458333516243.1902306351506004.09458333
516253.1902306351506004.09458333516263.1902306351506004.09458333
516273.1902306351506004.09458333516283.1902306351506004.09458333
516293.1902306351506004.09458333516303.1902306351506004.09458333
516313.1902306351506004.09458333516323.1902306351506004.09458333
516333.1902306351506004.09458333516343.1902306351506004.09458333
516353.1902306351506004.09458333516363.1902306351506004.09458333
516373.1902306351506004.09458333516383.1902306351506004.09458333
516393.1902306351506004.09458333516403.1902306351506004.09458333
516413.1902306351506004.09458333516423.1902306351506004.09458333
516433.1902306351506004.09458333516443.1902306351506004.09458333
516453.1902306351506004.09458333516463.1902306351506004.09458333
516473.1902306351506004.09458333516483.1902306351506004.09458333
516493.1902306351506004.09458333516503.1902306351506004.09458333
516513.1902306351506004.09458333516033.1902306351505994.09458333
516043.1902306351505994.09458333516053.1902306351505994.09458333
516063.1902306351505994.09458333516073.1902306351505994.09458333
516083.1902306351505994.09458333516093.1902306351505994.09458333
516103.1902306351505994.09458333516113.1902306351505994.09458333
516123.1902306351505994.09458333516133.1902306351505994.09458333
516143.1902306351505994.09458333516153.1902306351505994.09458333
516163.1902306351505994.09458333516173.1902306351505994.09458333
516183.1902306351505994.09458333516193.1902306351505994.09458333
516203.1902306351505994.09458333516213.1902306351505994.09458333
516223.1902306351505994.09458333516233.1902306351505994.09458333
516243.1902306351505994.09458333516253.1902306351505994.09458333
516263.1902306351505994.09458333516273.1902306351505994.09458333
516283.1902306351505994.09458333516293.1902306351505994.09458333
516303.1902306351505994.09458333516313.1902306351505994.09458333
516323.1902306351505994.09458333516333.1902306351505994.09458333
516343.1902306351505994.09458333516353.1902306351505994.09458333
516363.1902306351505994.09458333516373.1902306351505994.09458333
516383.1902306351505994.09458333516393.1902306351505994.09458333
516403.1902306351505994.09458333516413.1902306351505994.09458333
516423.1902306351505994.09458333516433.1902306351505994.09458333
516443.1902306351505994.09458333516453.1902306351505994.09458333
516463.1902306351505994.09458333516473.1902306351505994.09458333
516483.1902306351505994.09458333516493.1902306351505994.09458333
516503.1902306351505994.09458333516513.1902306351505994.09458333
516023.1902306351505984.09458333516033.1902306351505984.09458333
516043.1902306351505984.09458333516053.1902306351505984.09458333
516063.1902306351505984.09458333516073.1902306351505984.09458333
516083.1902306351505984.09458333516093.1902306351505984.09458333
516103.1902306351505984.09458333516113.1902306351505984.09458333
516123.1902306351505984.09458333516133.1902306351505984.09458333
516143.1902306351505984.09458333516153.1902306351505984.09458333
516163.1902306351505984.09458333516173.1902306351505984.09458333
516183.1902306351505984.09458333516193.1902306351505984.09458333
516203.1902306351505984.09458333516213.1902306351505984.09458333
516223.1902306351505984.09458333516233.1902306351505984.09458333
516243.1902306351505984.09458333516253.1902306351505984.09458333
516263.1902306351505984.09458333516273.1902306351505984.09458333
516283.1902306351505984.09458333516293.1902306351505984.09458333
516303.1902306351505984.09458333516313.1902306351505984.09458333
516323.1902306351505984.09458333516333.1902306351505984.09458333
516343.1902306351505984.09458333516353.1902306351505984.09458333
516363.1902306351505984.09458333516373.1902306351505984.09458333
516383.1902306351505984.09458333516393.1902306351505984.09458333
516403.1902306351505984.09458333516413.1902306351505984.09458333
516423.1902306351505984.09458333516433.1902306351505984.09458333
516443.1902306351505984.09458333516453.1902306351505984.09458333
516463.1902306351505984.09458333516473.1902306351505984.09458333
516483.1902306351505984.09458333516493.1902306351505984.09458333
516503.1902306351505984.09458333516513.1902306351505984.09458333
516023.1902306351505974.09458333516033.1902306351505974.09458333
516043.1902306351505974.09458333516053.1902306351505974.09458333
516063.1902306351505974.09458333516073.1902306351505974.09458333
516083.1902306351505974.09458333516093.1902306351505974.09458333
516103.1902306351505974.09458333516113.1902306351505974.09458333
516123.1902306351505974.09458333516133.1902306351505974.09458333
516143.1902306351505974.09458333516153.1902306351505974.09458333
516163.1902306351505974.09458333516173.1902306351505974.09458333
516183.1902306351505974.09458333516193.1902306351505974.09458333
516203.1902306351505974.09458333516213.1902306351505974.09458333
516223.1902306351505974.09458333516233.1902306351505974.09458333
516243.1902306351505974.09458333516253.1902306351505974.09458333
516263.1902306351505974.09458333516273.1902306351505974.09458333
516283.1902306351505974.09458333516293.1902306351505974.09458333
516303.1902306351505974.09458333516313.1902306351505974.09458333
516323.1902306351505974.09458333516333.1902306351505974.09458333
516343.1902306351505974.09458333516353.1902306351505974.09458333
516363.1902306351505974.09458333516373.1902306351505974.09458333
516383.1902306351505974.09458333516393.1902306351505974.09458333
516403.1902306351505974.09458333516413.1902306351505974.09458333
516423.1902306351505974.09458333516433.1902306351505974.09458333
516443.1902306351505974.09458333516453.1902306351505974.09458333
516463.1902306351505974.09458333516473.1902306351505974.09458333
516483.1902306351505974.09458333516493.1902306351505974.09458333
516503.1902306351505974.09458333516513.1902306351505974.09458333
516523.1902306351505974.09458333516013.1902306351505964.09458333
516023.1902306351505964.09458333516033.1902306351505964.09458333
516043.1902306351505964.09458333516053.1902306351505964.09458333
516063.1902306351505964.09458333516073.1902306351505964.09458333
516083.1902306351505964.09458333516093.1902306351505964.09458333
516103.1902306351505964.09458333516113.1902306351505964.09458333
516123.1902306351505964.09458333516133.1902306351505964.09458333
516143.1902306351505964.09458333516153.1902306351505964.09458333
516163.1902306351505964.09458333516173.1902306351505964.09458333
516183.1902306351505964.09458333516193.1902306351505964.09458333
516203.1902306351505964.09458333516213.1902306351505964.09458333
516223.1902306351505964.09458333516233.1902306351505964.09458333
516243.1902306351505964.09458333516253.1902306351505964.09458333
516263.1902306351505964.09458333516273.1902306351505964.09458333
516283.1902306351505964.09458333516293.1902306351505964.09458333
516303.1902306351505964.09458333516313.1902306351505964.09458333
516323.1902306351505964.09458333516333.1902306351505964.09458333
516343.1902306351505964.09458333516353.1902306351505964.09458333
516363.1902306351505964.09458333516373.1902306351505964.09458333
516383.1902306351505964.09458333516393.1902306351505964.09458333
516403.1902306351505964.09458333516413.1902306351505964.09458333
516423.1902306351505964.09458333516433.1902306351505964.09458333
516443.1902306351505964.09458333516453.1902306351505964.09458333
516463.1902306351505964.09458333516473.1902306351505964.09458333
516483.1902306351505964.09458333516493.1902306351505964.09458333
516503.1902306351505964.09458333516513.1902306351505964.09458333
516523.1902306351505964.09458333516013.1902306351505954.09458333
516023.1902306351505954.09458333516033.1902306351505954.09458333
516043.1902306351505954.09458333516053.1902306351505954.09458333
516063.1902306351505954.09458333516073.1902306351505954.09458333
516083.1902306351505954.09458333516093.1902306351505954.09458333
516103.1902306351505954.09458333516113.1902306351505954.09458333
516123.1902306351505954.09458333516133.1902306351505954.09458333
516143.1902306351505954.09458333516153.1902306351505954.09458333
516163.1902306351505954.09458333516173.1902306351505954.09458333
516183.1902306351505954.09458333516193.1902306351505954.09458333
516203.1902306351505954.09458333516213.1902306351505954.09458333
516223.1902306351505954.09458333516233.1902306351505954.09458333
516243.1902306351505954.09458333516253.1902306351505954.09458333
516263.1902306351505954.09458333516273.1902306351505954.09458333
516283.1902306351505954.09458333516293.1902306351505954.09458333
516303.1902306351505954.09458333516313.1902306351505954.09458333
516323.1902306351505954.09458333516333.1902306351505954.09458333
516343.1902306351505954.09458333516353.1902306351505954.09458333
516363.1902306351505954.09458333516373.1902306351505954.09458333
516383.1902306351505954.09458333516393.1902306351505954.09458333
516403.1902306351505954.09458333516413.1902306351505954.09458333
516423.1902306351505954.09458333516433.1902306351505954.09458333
516443.1902306351505954.09458333516453.1902306351505954.09458333
516463.1902306351505954.09458333516473.1902306351505954.09458333
516483.1902306351505954.09458333516493.1902306351505954.09458333
516503.1902306351505954.09458333516513.1902306351505954.09458333
516523.1902306351505954.09458333516533.1902306351505954.09458333
516003.1902306351505944.09458333516013.1902306351505944.09458333
516023.1902306351505944.09458333516033.1902306351505944.09458333
516043.1902306351505944.09458333516053.1902306351505944.09458333
516063.1902306351505944.09458333516073.1902306351505944.09458333
516083.1902306351505944.09458333516093.1902306351505944.09458333
516103.1902306351505944.09458333516113.1902306351505944.09458333
516123.1902306351505944.09458333516133.1902306351505944.09458333
516143.1902306351505944.09458333516153.1902306351505944.09458333
516163.1902306351505944.09458333516173.1902306351505944.09458333
516183.1902306351505944.09458333516193.1902306351505944.09458333
516203.1902306351505944.09458333516213.1902306351505944.09458333
516223.1902306351505944.09458333516233.1902306351505944.09458333
516243.1902306351505944.09458333516253.1902306351505944.09458333
516263.1902306351505944.09458333516273.1902306351505944.09458333
516283.1902306351505944.09458333516293.1902306351505944.09458333
516303.1902306351505944.09458333516313.1902306351505944.09458333
516323.1902306351505944.09458333516333.1902306351505944.09458333
516343.1902306351505944.09458333516353.1902306351505944.09458333
516363.1902306351505944.09458333516373.1902306351505944.09458333