Geom Title=geo
Program Version=6.70
Viewing Rectangle= 514251.727213128 , 519777.191732352 , 1507307.23802471 , 1504241.89023313 

Storage Area=river           ,,
Storage Area Surface Line= 77 
514528.5698496421505413.89020712                
514517.8029714351505607.57377506                
514634.7436950431505633.23868268                
514768.6801604421505736.79430712                
514873.8669964271505783.96074388                
514871.0163809521505896.96672866                
514775.2024966451506218.83750125                
514915.2100954841506630.87843194                
 515186.68998951 1506675.4757535                
515382.7904415181506675.90936758                
515775.0939418621506644.02162653                
516071.7308560911506637.07404645                
516358.8056458691506736.89466674                
516645.6897307271506805.92798718                
516929.9617183531506840.66684353                
517173.733589997 1506752.1903941                
 517416.11713716  1506592.744626                
517770.720756028 1506815.5580109                
518031.654714535 1506955.9199926                
518374.8614500321507020.41669934                
518605.7136908641507129.60830442                
  518700.91511821507125.48988383                
519014.8115681311507167.90403418                
519315.9996170651507151.56506052                
519430.4541274911506903.43579076                
519391.8740510881506471.31343108                
519351.2691125951506073.25977929                
 519251.720685641505861.88711361                
519131.4025410141505803.38779948                
519106.8031360591505717.30696473                
 519130.34436904 1505682.2486685                
519184.5108502671505627.81087453                
519201.6682395491505576.83321308                
519225.8898248061505478.47492724                
519221.1194087881505436.76690071                
519243.8379056221505411.22248924                
519240.0366046141505394.75792774                
519287.5729476231505381.32863493                
519352.202553679 1505421.9268669                
519497.7094049991505459.88517594                
519504.0357898381505251.11447622                
519466.077480799 1505168.8714733                
519333.223399159 1505137.2395491                
519137.1054691211505092.95485522                
519069.4253722961505064.77309918                
519071.1810450691505039.28068329                
 519065.804557851505013.29233814                
519030.8723235721504967.47063954                
518965.4892328021504845.20073349                
518828.3777276911504666.92870865                
518577.5038453211504505.80509606                
517956.4785394871504381.22422365                
517705.041578773  1504514.010957                
517698.073728118 1505060.8868512                
517680.4526410771505342.26647132                
517307.7928324531505259.11193159                
517190.6375324131505221.80603638                
516858.5977596751505240.81642968                
516505.3293756961505271.89495522                
516357.6739363011505363.74147751                
516281.9852024251505505.63480528                
516290.2322911371505700.28779986                
516285.3708417631505769.75865371                
516271.9259146571505797.65767498                
516240.7497588641505798.67771661                
516222.2537140551505739.18905463                
516212.9884298181505699.99514008                
516147.1044251721505580.45934199                
516106.881963053 1505485.0407351                
 515901.731782171505398.22827663                
515725.2820000351505354.00080759                
515525.072142831 1505201.9917628                
515330.1941456931505168.27878804                
515199.6473988941505152.57363267                
514693.4896365131505061.76555451                
514545.6631126881505212.48745676                
514528.5698496421505413.89020712                
Storage Area Type= 1 
Storage Area Area=
Storage Area Min Elev=
Storage Area Is2D=-1
Storage Area Point Generation Data=0,0,10,10
Storage Area 2D Points= 23474 
516355.8222812821506230.92273822516365.8222812821506230.92273822
516375.8222812821506230.92273822516385.8222812821506230.92273822
516225.8222812821506220.92273822516235.8222812821506220.92273822
516245.8222812821506220.92273822516255.8222812821506220.92273822
516265.8222812821506220.92273822516275.8222812821506220.92273822
516285.8222812821506220.92273822516295.8222812821506220.92273822
516305.8222812821506220.92273822516315.8222812821506220.92273822
516325.8222812821506220.92273822516335.8222812821506220.92273822
516345.8222812821506220.92273822516355.8222812821506220.92273822
516365.8222812821506220.92273822516375.8222812821506220.92273822
516385.8222812821506220.92273822516395.8222812821506220.92273822
516405.8222812821506220.92273822516185.8222812821506210.92273822
516195.8222812821506210.92273822516205.8222812821506210.92273822
516215.8222812821506210.92273822516225.8222812821506210.92273822
516235.8222812821506210.92273822516245.8222812821506210.92273822
516255.8222812821506210.92273822516265.8222812821506210.92273822
516275.8222812821506210.92273822516285.8222812821506210.92273822
516295.8222812821506210.92273822516305.8222812821506210.92273822
516315.8222812821506210.92273822516325.8222812821506210.92273822
516335.8222812821506210.92273822516345.8222812821506210.92273822
516355.8222812821506210.92273822516365.8222812821506210.92273822
516375.8222812821506210.92273822516385.8222812821506210.92273822
516395.8222812821506210.92273822516405.8222812821506210.92273822
516415.8222812821506210.92273822516175.8222812821506200.92273822
516185.8222812821506200.92273822516195.8222812821506200.92273822
516205.8222812821506200.92273822516215.8222812821506200.92273822
516225.8222812821506200.92273822516235.8222812821506200.92273822
516245.8222812821506200.92273822516255.8222812821506200.92273822
516265.8222812821506200.92273822516275.8222812821506200.92273822
516285.8222812821506200.92273822516295.8222812821506200.92273822
516305.8222812821506200.92273822516315.8222812821506200.92273822
516325.8222812821506200.92273822516335.8222812821506200.92273822
516345.8222812821506200.92273822516355.8222812821506200.92273822
516365.8222812821506200.92273822516375.8222812821506200.92273822
516385.8222812821506200.92273822516395.8222812821506200.92273822
516405.8222812821506200.92273822516415.8222812821506200.92273822
516425.8222812821506200.92273822516165.8222812821506190.92273822
516175.8222812821506190.92273822516185.8222812821506190.92273822
516195.8222812821506190.92273822516205.8222812821506190.92273822
516215.8222812821506190.92273822516225.8222812821506190.92273822
516235.8222812821506190.92273822516245.8222812821506190.92273822
516255.8222812821506190.92273822516265.8222812821506190.92273822
516275.8222812821506190.92273822516285.8222812821506190.92273822
516295.8222812821506190.92273822516305.8222812821506190.92273822
516315.8222812821506190.92273822516325.8222812821506190.92273822
516335.8222812821506190.92273822516345.8222812821506190.92273822
516355.8222812821506190.92273822516365.8222812821506190.92273822
516375.8222812821506190.92273822516385.8222812821506190.92273822
516395.8222812821506190.92273822516405.8222812821506190.92273822
516415.8222812821506190.92273822516425.8222812821506190.92273822
516435.8222812821506190.92273822516445.8222812821506190.92273822
516165.8222812821506180.92273822516175.8222812821506180.92273822
516185.8222812821506180.92273822516195.8222812821506180.92273822
516205.8222812821506180.92273822516215.8222812821506180.92273822
516225.8222812821506180.92273822516235.8222812821506180.92273822
516245.8222812821506180.92273822516255.8222812821506180.92273822
516265.8222812821506180.92273822516275.8222812821506180.92273822
516285.8222812821506180.92273822516295.8222812821506180.92273822
516305.8222812821506180.92273822516315.8222812821506180.92273822
516325.8222812821506180.92273822516335.8222812821506180.92273822
516345.8222812821506180.92273822516355.8222812821506180.92273822
516365.8222812821506180.92273822516375.8222812821506180.92273822
516385.8222812821506180.92273822516395.8222812821506180.92273822
516405.8222812821506180.92273822516415.8222812821506180.92273822
516425.8222812821506180.92273822516435.8222812821506180.92273822
516445.8222812821506180.92273822516455.8222812821506180.92273822
516155.8222812821506170.92273822516165.8222812821506170.92273822
516175.8222812821506170.92273822516185.8222812821506170.92273822
516195.8222812821506170.92273822516205.8222812821506170.92273822
516215.8222812821506170.92273822516225.8222812821506170.92273822
516235.8222812821506170.92273822516245.8222812821506170.92273822
516255.8222812821506170.92273822516265.8222812821506170.92273822
516275.8222812821506170.92273822516285.8222812821506170.92273822
516295.8222812821506170.92273822516305.8222812821506170.92273822
516315.8222812821506170.92273822516325.8222812821506170.92273822
516335.8222812821506170.92273822516345.8222812821506170.92273822
516355.8222812821506170.92273822516365.8222812821506170.92273822
516375.8222812821506170.92273822516385.8222812821506170.92273822
516395.8222812821506170.92273822516405.8222812821506170.92273822
516415.8222812821506170.92273822516425.8222812821506170.92273822
516435.8222812821506170.92273822516445.8222812821506170.92273822
516455.8222812821506170.92273822516465.8222812821506170.92273822
516145.8222812821506160.92273822516155.8222812821506160.92273822
516165.8222812821506160.92273822516175.8222812821506160.92273822
516185.8222812821506160.92273822516195.8222812821506160.92273822
516205.8222812821506160.92273822516215.8222812821506160.92273822
516225.8222812821506160.92273822516235.8222812821506160.92273822
516245.8222812821506160.92273822516255.8222812821506160.92273822
516265.8222812821506160.92273822516275.8222812821506160.92273822
516285.8222812821506160.92273822516295.8222812821506160.92273822
516305.8222812821506160.92273822516315.8222812821506160.92273822
516325.8222812821506160.92273822516335.8222812821506160.92273822
516345.8222812821506160.92273822516355.8222812821506160.92273822
516365.8222812821506160.92273822516375.8222812821506160.92273822
516385.8222812821506160.92273822516395.8222812821506160.92273822
516405.8222812821506160.92273822516415.8222812821506160.92273822
516425.8222812821506160.92273822516435.8222812821506160.92273822
516445.8222812821506160.92273822516455.8222812821506160.92273822
516465.8222812821506160.92273822516475.8222812821506160.92273822
516485.8222812821506160.92273822516135.8222812821506150.92273822
516145.8222812821506150.92273822516155.8222812821506150.92273822
516165.8222812821506150.92273822516175.8222812821506150.92273822
516185.8222812821506150.92273822516195.8222812821506150.92273822
516205.8222812821506150.92273822516215.8222812821506150.92273822
516225.8222812821506150.92273822516235.8222812821506150.92273822
516245.8222812821506150.92273822516255.8222812821506150.92273822
516265.8222812821506150.92273822516275.8222812821506150.92273822
516285.8222812821506150.92273822516295.8222812821506150.92273822
516305.8222812821506150.92273822516315.8222812821506150.92273822
516325.8222812821506150.92273822516335.8222812821506150.92273822
516345.8222812821506150.92273822516355.8222812821506150.92273822
516365.8222812821506150.92273822516375.8222812821506150.92273822
516385.8222812821506150.92273822516395.8222812821506150.92273822
516405.8222812821506150.92273822516415.8222812821506150.92273822
516425.8222812821506150.92273822516435.8222812821506150.92273822
516445.8222812821506150.92273822516455.8222812821506150.92273822
516465.8222812821506150.92273822516475.8222812821506150.92273822
516485.8222812821506150.92273822516495.8222812821506150.92273822
516135.8222812821506140.92273822516145.8222812821506140.92273822
516155.8222812821506140.92273822516165.8222812821506140.92273822
516175.8222812821506140.92273822516185.8222812821506140.92273822
516195.8222812821506140.92273822516205.8222812821506140.92273822
516215.8222812821506140.92273822516225.8222812821506140.92273822
516235.8222812821506140.92273822516245.8222812821506140.92273822
516255.8222812821506140.92273822516265.8222812821506140.92273822
516275.8222812821506140.92273822516285.8222812821506140.92273822
516295.8222812821506140.92273822516305.8222812821506140.92273822
516315.8222812821506140.92273822516325.8222812821506140.92273822
516335.8222812821506140.92273822516345.8222812821506140.92273822
516355.8222812821506140.92273822516365.8222812821506140.92273822
516375.8222812821506140.92273822516385.8222812821506140.92273822
516395.8222812821506140.92273822516405.8222812821506140.92273822
516415.8222812821506140.92273822516425.8222812821506140.92273822
516435.8222812821506140.92273822516445.8222812821506140.92273822
516455.8222812821506140.92273822516465.8222812821506140.92273822
516475.8222812821506140.92273822516485.8222812821506140.92273822
516495.8222812821506140.92273822516505.8222812821506140.92273822
516515.8222812821506140.92273822516125.8222812821506130.92273822
516135.8222812821506130.92273822516145.8222812821506130.92273822
516155.8222812821506130.92273822516165.8222812821506130.92273822
516175.8222812821506130.92273822516185.8222812821506130.92273822
516195.8222812821506130.92273822516205.8222812821506130.92273822
516215.8222812821506130.92273822516225.8222812821506130.92273822
516235.8222812821506130.92273822516245.8222812821506130.92273822
516255.8222812821506130.92273822516265.8222812821506130.92273822
516275.8222812821506130.92273822516285.8222812821506130.92273822
516295.8222812821506130.92273822516305.8222812821506130.92273822
516315.8222812821506130.92273822516325.8222812821506130.92273822
516335.8222812821506130.92273822516345.8222812821506130.92273822
516355.8222812821506130.92273822516365.8222812821506130.92273822
516375.8222812821506130.92273822516385.8222812821506130.92273822
516395.8222812821506130.92273822516405.8222812821506130.92273822
516415.8222812821506130.92273822516425.8222812821506130.92273822
516435.8222812821506130.92273822516445.8222812821506130.92273822
516455.8222812821506130.92273822516465.8222812821506130.92273822
516475.8222812821506130.92273822516485.8222812821506130.92273822
516495.8222812821506130.92273822516505.8222812821506130.92273822
516515.8222812821506130.92273822516525.8222812821506130.92273822
516115.8222812821506120.92273822516125.8222812821506120.92273822
516135.8222812821506120.92273822516145.8222812821506120.92273822
516155.8222812821506120.92273822516165.8222812821506120.92273822
516175.8222812821506120.92273822516185.8222812821506120.92273822
516195.8222812821506120.92273822516205.8222812821506120.92273822
516215.8222812821506120.92273822516225.8222812821506120.92273822
516235.8222812821506120.92273822516245.8222812821506120.92273822
516255.8222812821506120.92273822516265.8222812821506120.92273822
516275.8222812821506120.92273822516285.8222812821506120.92273822
516295.8222812821506120.92273822516305.8222812821506120.92273822
516315.8222812821506120.92273822516325.8222812821506120.92273822
516335.8222812821506120.92273822516345.8222812821506120.92273822
516355.8222812821506120.92273822516365.8222812821506120.92273822
516375.8222812821506120.92273822516385.8222812821506120.92273822
516395.8222812821506120.92273822516405.8222812821506120.92273822
516415.8222812821506120.92273822516425.8222812821506120.92273822
516435.8222812821506120.92273822516445.8222812821506120.92273822
516455.8222812821506120.92273822516465.8222812821506120.92273822
516475.8222812821506120.92273822516485.8222812821506120.92273822
516495.8222812821506120.92273822516505.8222812821506120.92273822
516515.8222812821506120.92273822516525.8222812821506120.92273822
516535.8222812821506120.92273822516115.8222812821506110.92273822
516125.8222812821506110.92273822516135.8222812821506110.92273822
516145.8222812821506110.92273822516155.8222812821506110.92273822
516165.8222812821506110.92273822516175.8222812821506110.92273822
516185.8222812821506110.92273822516195.8222812821506110.92273822
516205.8222812821506110.92273822516215.8222812821506110.92273822
516225.8222812821506110.92273822516235.8222812821506110.92273822
516245.8222812821506110.92273822516255.8222812821506110.92273822
516265.8222812821506110.92273822516275.8222812821506110.92273822
516285.8222812821506110.92273822516295.8222812821506110.92273822
516305.8222812821506110.92273822516315.8222812821506110.92273822
516325.8222812821506110.92273822516335.8222812821506110.92273822
516345.8222812821506110.92273822516355.8222812821506110.92273822
516365.8222812821506110.92273822516375.8222812821506110.92273822
516385.8222812821506110.92273822516395.8222812821506110.92273822
516405.8222812821506110.92273822516415.8222812821506110.92273822
516425.8222812821506110.92273822516435.8222812821506110.92273822
516445.8222812821506110.92273822516455.8222812821506110.92273822
516465.8222812821506110.92273822516475.8222812821506110.92273822
516485.8222812821506110.92273822516495.8222812821506110.92273822
516505.8222812821506110.92273822516515.8222812821506110.92273822
516525.8222812821506110.92273822516535.8222812821506110.92273822
516545.8222812821506110.92273822516555.8222812821506110.92273822
516105.8222812821506100.92273822516115.8222812821506100.92273822
516125.8222812821506100.92273822516135.8222812821506100.92273822
516145.8222812821506100.92273822516155.8222812821506100.92273822
516165.8222812821506100.92273822516175.8222812821506100.92273822
516185.8222812821506100.92273822516195.8222812821506100.92273822
516205.8222812821506100.92273822516215.8222812821506100.92273822
516225.8222812821506100.92273822516235.8222812821506100.92273822
516245.8222812821506100.92273822516255.8222812821506100.92273822
516265.8222812821506100.92273822516275.8222812821506100.92273822
516285.8222812821506100.92273822516295.8222812821506100.92273822
516305.8222812821506100.92273822516315.8222812821506100.92273822
516325.8222812821506100.92273822516335.8222812821506100.92273822
516345.8222812821506100.92273822516355.8222812821506100.92273822
516365.8222812821506100.92273822516375.8222812821506100.92273822
516385.8222812821506100.92273822516395.8222812821506100.92273822
516405.8222812821506100.92273822516415.8222812821506100.92273822
516425.8222812821506100.92273822516435.8222812821506100.92273822
516445.8222812821506100.92273822516455.8222812821506100.92273822
516465.8222812821506100.92273822516475.8222812821506100.92273822
516485.8222812821506100.92273822516495.8222812821506100.92273822
516505.8222812821506100.92273822516515.8222812821506100.92273822
516525.8222812821506100.92273822516535.8222812821506100.92273822
516545.8222812821506100.92273822516555.8222812821506100.92273822
516095.8222812821506090.92273822516105.8222812821506090.92273822
516115.8222812821506090.92273822516125.8222812821506090.92273822
516135.8222812821506090.92273822516145.8222812821506090.92273822
516155.8222812821506090.92273822516165.8222812821506090.92273822
516175.8222812821506090.92273822516185.8222812821506090.92273822
516195.8222812821506090.92273822516205.8222812821506090.92273822
516215.8222812821506090.92273822516225.8222812821506090.92273822
516235.8222812821506090.92273822516245.8222812821506090.92273822
516255.8222812821506090.92273822516265.8222812821506090.92273822
516275.8222812821506090.92273822516285.8222812821506090.92273822
516295.8222812821506090.92273822516305.8222812821506090.92273822
516315.8222812821506090.92273822516325.8222812821506090.92273822
516335.8222812821506090.92273822516345.8222812821506090.92273822
516355.8222812821506090.92273822516365.8222812821506090.92273822
516375.8222812821506090.92273822516385.8222812821506090.92273822
516395.8222812821506090.92273822516405.8222812821506090.92273822
516415.8222812821506090.92273822516425.8222812821506090.92273822
516435.8222812821506090.92273822516445.8222812821506090.92273822
516455.8222812821506090.92273822516465.8222812821506090.92273822
516475.8222812821506090.92273822516485.8222812821506090.92273822
516495.8222812821506090.92273822516505.8222812821506090.92273822
516515.8222812821506090.92273822516525.8222812821506090.92273822
516535.8222812821506090.92273822516545.8222812821506090.92273822
516555.8222812821506090.92273822516565.8222812821506090.92273822
516085.8222812821506080.92273822516095.8222812821506080.92273822
516105.8222812821506080.92273822516115.8222812821506080.92273822
516125.8222812821506080.92273822516135.8222812821506080.92273822
516145.8222812821506080.92273822516155.8222812821506080.92273822
516165.8222812821506080.92273822516175.8222812821506080.92273822
516185.8222812821506080.92273822516195.8222812821506080.92273822
516205.8222812821506080.92273822516215.8222812821506080.92273822
516225.8222812821506080.92273822516235.8222812821506080.92273822
516245.8222812821506080.92273822516255.8222812821506080.92273822
516265.8222812821506080.92273822516275.8222812821506080.92273822
516285.8222812821506080.92273822516295.8222812821506080.92273822
516305.8222812821506080.92273822516315.8222812821506080.92273822
516325.8222812821506080.92273822516335.8222812821506080.92273822
516345.8222812821506080.92273822516355.8222812821506080.92273822
516365.8222812821506080.92273822516375.8222812821506080.92273822
516385.8222812821506080.92273822516395.8222812821506080.92273822
516405.8222812821506080.92273822516415.8222812821506080.92273822
516425.8222812821506080.92273822516435.8222812821506080.92273822
516445.8222812821506080.92273822516455.8222812821506080.92273822
516465.8222812821506080.92273822516475.8222812821506080.92273822
516485.8222812821506080.92273822516495.8222812821506080.92273822
516505.8222812821506080.92273822516515.8222812821506080.92273822
516525.8222812821506080.92273822516535.8222812821506080.92273822
516545.8222812821506080.92273822516555.8222812821506080.92273822
516565.8222812821506080.92273822516085.8222812821506070.92273822
516095.8222812821506070.92273822516105.8222812821506070.92273822
516115.8222812821506070.92273822516125.8222812821506070.92273822
516135.8222812821506070.92273822516145.8222812821506070.92273822
516155.8222812821506070.92273822516165.8222812821506070.92273822
516175.8222812821506070.92273822516185.8222812821506070.92273822
516195.8222812821506070.92273822516205.8222812821506070.92273822
516215.8222812821506070.92273822516225.8222812821506070.92273822
516235.8222812821506070.92273822516245.8222812821506070.92273822
516255.8222812821506070.92273822516265.8222812821506070.92273822
516275.8222812821506070.92273822516285.8222812821506070.92273822
516295.8222812821506070.92273822516305.8222812821506070.92273822
516315.8222812821506070.92273822516325.8222812821506070.92273822
516335.8222812821506070.92273822516345.8222812821506070.92273822
516355.8222812821506070.92273822516365.8222812821506070.92273822
516375.8222812821506070.92273822516385.8222812821506070.92273822
516395.8222812821506070.92273822516405.8222812821506070.92273822
516415.8222812821506070.92273822516425.8222812821506070.92273822
516435.8222812821506070.92273822516445.8222812821506070.92273822
516455.8222812821506070.92273822516465.8222812821506070.92273822
516475.8222812821506070.92273822516485.8222812821506070.92273822
516495.8222812821506070.92273822516505.8222812821506070.92273822
516515.8222812821506070.92273822516525.8222812821506070.92273822
516535.8222812821506070.92273822516545.8222812821506070.92273822
516555.8222812821506070.92273822516565.8222812821506070.92273822
516075.8222812821506060.92273822516085.8222812821506060.92273822
516095.8222812821506060.92273822516105.8222812821506060.92273822
516115.8222812821506060.92273822516125.8222812821506060.92273822
516135.8222812821506060.92273822516145.8222812821506060.92273822
516155.8222812821506060.92273822516165.8222812821506060.92273822
516175.8222812821506060.92273822516185.8222812821506060.92273822
516195.8222812821506060.92273822516205.8222812821506060.92273822
516215.8222812821506060.92273822516225.8222812821506060.92273822
516235.8222812821506060.92273822516245.8222812821506060.92273822
516255.8222812821506060.92273822516265.8222812821506060.92273822
516275.8222812821506060.92273822516285.8222812821506060.92273822
516295.8222812821506060.92273822516305.8222812821506060.92273822
516315.8222812821506060.92273822516325.8222812821506060.92273822
516335.8222812821506060.92273822516345.8222812821506060.92273822
516355.8222812821506060.92273822516365.8222812821506060.92273822
516375.8222812821506060.92273822516385.8222812821506060.92273822
516395.8222812821506060.92273822516405.8222812821506060.92273822
516415.8222812821506060.92273822516425.8222812821506060.92273822
516435.8222812821506060.92273822516445.8222812821506060.92273822
516455.8222812821506060.92273822516465.8222812821506060.92273822
516475.8222812821506060.92273822516485.8222812821506060.92273822
516495.8222812821506060.92273822516505.8222812821506060.92273822
516515.8222812821506060.92273822516525.8222812821506060.92273822
516535.8222812821506060.92273822516545.8222812821506060.92273822
516555.8222812821506060.92273822516565.8222812821506060.92273822
516575.8222812821506060.92273822516065.8222812821506050.92273822
516075.8222812821506050.92273822516085.8222812821506050.92273822
516095.8222812821506050.92273822516105.8222812821506050.92273822
516115.8222812821506050.92273822516125.8222812821506050.92273822
516135.8222812821506050.92273822516145.8222812821506050.92273822
516155.8222812821506050.92273822516165.8222812821506050.92273822
516175.8222812821506050.92273822516185.8222812821506050.92273822
516195.8222812821506050.92273822516205.8222812821506050.92273822
516215.8222812821506050.92273822516225.8222812821506050.92273822
516235.8222812821506050.92273822516245.8222812821506050.92273822
516255.8222812821506050.92273822516265.8222812821506050.92273822
516275.8222812821506050.92273822516285.8222812821506050.92273822
516295.8222812821506050.92273822516305.8222812821506050.92273822
516315.8222812821506050.92273822516325.8222812821506050.92273822
516335.8222812821506050.92273822516345.8222812821506050.92273822
516355.8222812821506050.92273822516365.8222812821506050.92273822
516375.8222812821506050.92273822516385.8222812821506050.92273822
516395.8222812821506050.92273822516405.8222812821506050.92273822
516415.8222812821506050.92273822516425.8222812821506050.92273822
516435.8222812821506050.92273822516445.8222812821506050.92273822
516455.8222812821506050.92273822516465.8222812821506050.92273822
516475.8222812821506050.92273822516485.8222812821506050.92273822
516495.8222812821506050.92273822516505.8222812821506050.92273822
516515.8222812821506050.92273822516525.8222812821506050.92273822
516535.8222812821506050.92273822516545.8222812821506050.92273822
516555.8222812821506050.92273822516565.8222812821506050.92273822
516575.8222812821506050.92273822516065.8222812821506040.92273822
516075.8222812821506040.92273822516085.8222812821506040.92273822
516095.8222812821506040.92273822516105.8222812821506040.92273822
516115.8222812821506040.92273822516125.8222812821506040.92273822
516135.8222812821506040.92273822516145.8222812821506040.92273822
516155.8222812821506040.92273822516165.8222812821506040.92273822
516175.8222812821506040.92273822516185.8222812821506040.92273822
516195.8222812821506040.92273822516205.8222812821506040.92273822
516215.8222812821506040.92273822516225.8222812821506040.92273822
516235.8222812821506040.92273822516245.8222812821506040.92273822
516255.8222812821506040.92273822516265.8222812821506040.92273822
516275.8222812821506040.92273822516285.8222812821506040.92273822
516295.8222812821506040.92273822516305.8222812821506040.92273822
516315.8222812821506040.92273822516325.8222812821506040.92273822
516335.8222812821506040.92273822516345.8222812821506040.92273822
516355.8222812821506040.92273822516365.8222812821506040.92273822
516375.8222812821506040.92273822516385.8222812821506040.92273822
516395.8222812821506040.92273822516405.8222812821506040.92273822
516415.8222812821506040.92273822516425.8222812821506040.92273822
516435.8222812821506040.92273822516445.8222812821506040.92273822
516455.8222812821506040.92273822516465.8222812821506040.92273822
516475.8222812821506040.92273822516485.8222812821506040.92273822
516495.8222812821506040.92273822516505.8222812821506040.92273822
516515.8222812821506040.92273822516525.8222812821506040.92273822
516535.8222812821506040.92273822516545.8222812821506040.92273822
516555.8222812821506040.92273822516565.8222812821506040.92273822
516575.8222812821506040.92273822516585.8222812821506040.92273822
516045.8222812821506030.92273822516055.8222812821506030.92273822
516065.8222812821506030.92273822516075.8222812821506030.92273822
516085.8222812821506030.92273822516095.8222812821506030.92273822
516105.8222812821506030.92273822516115.8222812821506030.92273822
516125.8222812821506030.92273822516135.8222812821506030.92273822
516145.8222812821506030.92273822516155.8222812821506030.92273822
516165.8222812821506030.92273822516175.8222812821506030.92273822
516185.8222812821506030.92273822516195.8222812821506030.92273822
516205.8222812821506030.92273822516215.8222812821506030.92273822
516225.8222812821506030.92273822516235.8222812821506030.92273822
516245.8222812821506030.92273822516255.8222812821506030.92273822
516265.8222812821506030.92273822516275.8222812821506030.92273822
516285.8222812821506030.92273822516295.8222812821506030.92273822
516305.8222812821506030.92273822516315.8222812821506030.92273822
516325.8222812821506030.92273822516335.8222812821506030.92273822
516345.8222812821506030.92273822516355.8222812821506030.92273822
516365.8222812821506030.92273822516375.8222812821506030.92273822
516385.8222812821506030.92273822516395.8222812821506030.92273822
516405.8222812821506030.92273822516415.8222812821506030.92273822
516425.8222812821506030.92273822516435.8222812821506030.92273822
516445.8222812821506030.92273822516455.8222812821506030.92273822
516465.8222812821506030.92273822516475.8222812821506030.92273822