Geom Title=geo
Program Version=6.70
Viewing Rectangle= 514559.6736 , 519371.8021 , 1507083.3366 , 1504415.32180665 

Storage Area=camaligan       ,517303.7041683,1505803.8276911
Storage Area Surface Line= 150 
514599.6874502991505503.78988325                
 514586.682949131505524.79715437                
514567.6763704971505544.80407925                
514566.6760242541505602.82416139                
514578.6801791791505623.83143251                
514579.6805254231505629.83350997                
514633.6992225891505687.85359211                
514646.7037237591505707.86051699                
514647.7040700021505727.86744186                
514656.707186197 1505746.8740205                
514653.7061474651505756.87748293                
514668.711341123 1505778.8851003                
514723.7303845321505834.90448995                
  517200.83777051506856.25800488                
 517250.855082691506857.25835113                
517279.865123761 1506845.2541962                
517304.8737798561506824.24692508                
517394.9049417991506625.17802256                
517414.9118666751506625.17802256                
517961.1009157971506859.25904362                
517998.1137268181506858.25869737                
518008.1171892561506852.25661991                
518212.6879961161506820.74571323                
 518289.714656891506820.74571323                
519220.0366636351507070.08201338                
519324.0726729921507069.08166714                
519363.0112280561507038.06481686                
519364.1100870491506924.88234057                
 519111.562458141505942.22768603                
519111.0130286431505892.77903135                
519122.0016185741505872.99956947                
519120.3957177111505826.02334752                
519129.7360191521505806.24388564                
519128.0877306631505759.54237844                
519140.7246090831505739.21348707                
519139.0975144071505701.02813706                
519149.5366748411505682.89696367                
519148.9872453441505641.68975143                
519160.5358616781505622.18500431                
519158.3381436921505584.27436905                
519169.8761631191505562.84661868                
519169.3320320761505503.23351831                
519179.2217630141505485.10234492                
519177.989520486 1505282.9122902                
519189.8715956551505260.11096609                
519187.6738776691505175.49882363                
519187.7688903821504930.17855343                
519198.7574803131504912.04738004                
519200.0742519561504585.41154436                
519187.9868030331504566.18151198                
519190.733950515 1504547.5009091                
519152.2894509481504509.86498858                
519133.6088480661504501.07411664                
519067.1278789861504501.07411664                
518719.0642929351504675.51798179                
518694.8893950881504676.61684078                
 518675.659362711504666.17768035                
518616.046262336 1504665.3535361                
518596.8162299581504656.56266416                
518541.8732803051504599.42199652                
518530.8846903741504598.87256702                
518494.0729141071504588.98283608                
518463.8542917981504572.49995119                
518449.5691248881504545.57790586                
518414.1309223621504510.13970333                
518403.1423324321504509.59027384                
518386.110018039 1504500.2499724                
518347.1005237861504501.34883139                
518328.4199209041504510.13970333                
 518316.332471981504509.04084434                
518287.7621381611504479.92108102                
518284.4655611821504468.93249109                
518241.0606309561504433.21957382                
518221.281169081 1504435.4172918                
518200.6775629611504423.03447387                
518107.2745485511504424.13333286                
518068.2650542981504462.59339762                
 518060.023611851504479.07628251                
518060.5730413461504491.16373144                
518040.7935794711504527.42607821                
518042.9912974581504537.31580915                
518031.4532780311504557.64470052                
518031.4532780311504573.02872642                
518042.1671532131504594.18176204                
518041.6177237161504633.74068579                
 518052.056884151504653.52014766                
518052.6063136471504682.63991098                
518042.7165827091504702.41937285                
 517993.542642771504724.12183797                
517979.8069053571504723.57240847                
517960.5768729781504733.46213941                
517952.8848600271504744.45072934                
517934.7536866421504752.14274229                
 517916.073083761504789.50394805                
517914.1500805221504845.27104195                
 517935.028401391504887.02768369                
517922.9409524661504909.00486355                
517892.9970449051504937.30048262                
517885.305031954 1504955.9810855                
517886.1291761991505033.17592976                
517865.2508553311505073.83371251                
  517854.26226541505082.62458445                
517836.4058067631505119.16164597                
517838.6035247491505188.93919203                
 517816.351630141505226.02568304                
517818.5493481261505266.68346579                
 517795.748024021505297.17680285                
517785.8582930821505316.40683522                
 517787.781296321505410.08456438                
517798.2204567541505432.06174424                
517778.4409948791505450.74234712                
517697.1254293931505451.29177662                
517678.4448265111505443.05033417                
517416.0922419191505442.77561943                
517394.1150620581505432.33645899                
516840.0154148091505433.16060324                
  516825.7302479 1505422.7214428                
516813.093369479 1505423.2708723                
516660.9013989411505363.93248667                
516483.1609568141505298.27566184                
516437.0088791061505296.07794385                
516395.5269521181505318.87926796                
516381.791214705 1505344.1530248                
516302.948081953 1505478.4885367                
516302.9480819531505728.47895762                
516303.7722261981505828.20041124                
516282.0697610851505851.55116484                
516055.7048085151505626.28507127                
516037.0242056341505618.59305831                
515962.0270793571505540.29935506                
 515950.489059931505540.29935506                
515932.9073160411505531.50848311                
515592.8104576911505529.86019463                
515570.2838483331505520.51989318                
 515336.501597561505519.14631944                
515318.3704241751505508.70715901                
515287.052942873  1505509.806018                
515031.2935122391505460.63207806                
515029.6452237491505453.48949461                
514818.3895823341505364.75663092                
514677.9056438621505306.24238954                
514642.7421560851505305.69296004                
514621.8638352171505317.78040897                
514614.1718222651505316.68154997                
514566.3714560671505371.07507013                
 514567.470315061505427.66630827                
514587.3347832551505469.14823526                
514586.2359242621505476.84024821                
514598.3233731851505502.66343455                
514599.6874502991505503.78988325                
Storage Area Type= 1 
Storage Area Area=
Storage Area Min Elev=
Storage Area Is2D=-1
Storage Area Point Generation Data=0,0,10,10
Storage Area 2D Points= 61826 
519211.3714560671507065.08201338519221.3714560671507065.08201338
519231.3714560671507065.08201338519241.3714560671507065.08201338
519251.3714560671507065.08201338519261.3714560671507065.08201338
519271.3714560671507065.08201338519281.3714560671507065.08201338
519291.3714560671507065.08201338519301.3714560671507065.08201338
519311.3714560671507065.08201338519321.3714560671507065.08201338
519181.3714560671507055.08201338519191.3714560671507055.08201338
519201.3714560671507055.08201338519211.3714560671507055.08201338
519221.3714560671507055.08201338519231.3714560671507055.08201338
519241.3714560671507055.08201338519251.3714560671507055.08201338
519261.3714560671507055.08201338519271.3714560671507055.08201338
519281.3714560671507055.08201338519291.3714560671507055.08201338
519301.3714560671507055.08201338519311.3714560671507055.08201338
519321.3714560671507055.08201338519331.3714560671507055.08201338
519141.3714560671507045.08201338519151.3714560671507045.08201338
519161.3714560671507045.08201338519171.3714560671507045.08201338
519181.3714560671507045.08201338519191.3714560671507045.08201338
519201.3714560671507045.08201338519211.3714560671507045.08201338
519221.3714560671507045.08201338519231.3714560671507045.08201338
519241.3714560671507045.08201338519251.3714560671507045.08201338
519261.3714560671507045.08201338519271.3714560671507045.08201338
519281.3714560671507045.08201338519291.3714560671507045.08201338
519301.3714560671507045.08201338519311.3714560671507045.08201338
519321.3714560671507045.08201338519331.3714560671507045.08201338
519341.3714560671507045.08201338519101.3714560671507035.08201338
519111.3714560671507035.08201338519121.3714560671507035.08201338
519131.3714560671507035.08201338519141.3714560671507035.08201338
519151.3714560671507035.08201338519161.3714560671507035.08201338
519171.3714560671507035.08201338519181.3714560671507035.08201338
519191.3714560671507035.08201338519201.3714560671507035.08201338
519211.3714560671507035.08201338519221.3714560671507035.08201338
519231.3714560671507035.08201338519241.3714560671507035.08201338
519251.3714560671507035.08201338519261.3714560671507035.08201338
519271.3714560671507035.08201338519281.3714560671507035.08201338
519291.3714560671507035.08201338519301.3714560671507035.08201338
519311.3714560671507035.08201338519321.3714560671507035.08201338
519331.3714560671507035.08201338519341.3714560671507035.08201338
519351.3714560671507035.08201338519071.3714560671507025.08201338
519081.3714560671507025.08201338519091.3714560671507025.08201338
519101.3714560671507025.08201338519111.3714560671507025.08201338
519121.3714560671507025.08201338519131.3714560671507025.08201338
519141.3714560671507025.08201338519151.3714560671507025.08201338
519161.3714560671507025.08201338519171.3714560671507025.08201338
519181.3714560671507025.08201338519191.3714560671507025.08201338
519201.3714560671507025.08201338519211.3714560671507025.08201338
519221.3714560671507025.08201338519231.3714560671507025.08201338
519241.3714560671507025.08201338519251.3714560671507025.08201338
519261.3714560671507025.08201338519271.3714560671507025.08201338
519281.3714560671507025.08201338519291.3714560671507025.08201338
519301.3714560671507025.08201338519311.3714560671507025.08201338
519321.3714560671507025.08201338519331.3714560671507025.08201338
519341.3714560671507025.08201338519351.3714560671507025.08201338
519031.3714560671507015.08201338519041.3714560671507015.08201338
519051.3714560671507015.08201338519061.3714560671507015.08201338
519071.3714560671507015.08201338519081.3714560671507015.08201338
519091.3714560671507015.08201338519101.3714560671507015.08201338
519111.3714560671507015.08201338519121.3714560671507015.08201338
519131.3714560671507015.08201338519141.3714560671507015.08201338
519151.3714560671507015.08201338519161.3714560671507015.08201338
519171.3714560671507015.08201338519181.3714560671507015.08201338
519191.3714560671507015.08201338519201.3714560671507015.08201338
519211.3714560671507015.08201338519221.3714560671507015.08201338
519231.3714560671507015.08201338519241.3714560671507015.08201338
519251.3714560671507015.08201338519261.3714560671507015.08201338
519271.3714560671507015.08201338519281.3714560671507015.08201338
519291.3714560671507015.08201338519301.3714560671507015.08201338
519311.3714560671507015.08201338519321.3714560671507015.08201338
519331.3714560671507015.08201338519341.3714560671507015.08201338
519351.3714560671507015.08201338518991.3714560671507005.08201338
519001.3714560671507005.08201338519011.3714560671507005.08201338
519021.3714560671507005.08201338519031.3714560671507005.08201338
519041.3714560671507005.08201338519051.3714560671507005.08201338
519061.3714560671507005.08201338519071.3714560671507005.08201338
519081.3714560671507005.08201338519091.3714560671507005.08201338
519101.3714560671507005.08201338519111.3714560671507005.08201338
519121.3714560671507005.08201338519131.3714560671507005.08201338
519141.3714560671507005.08201338519151.3714560671507005.08201338
519161.3714560671507005.08201338519171.3714560671507005.08201338
519181.3714560671507005.08201338519191.3714560671507005.08201338
519201.3714560671507005.08201338519211.3714560671507005.08201338
519221.3714560671507005.08201338519231.3714560671507005.08201338
519241.3714560671507005.08201338519251.3714560671507005.08201338
519261.3714560671507005.08201338519271.3714560671507005.08201338
519281.3714560671507005.08201338519291.3714560671507005.08201338
519301.3714560671507005.08201338519311.3714560671507005.08201338
519321.3714560671507005.08201338519331.3714560671507005.08201338
519341.3714560671507005.08201338519351.3714560671507005.08201338
518951.3714560671506995.08201338518961.3714560671506995.08201338
518971.3714560671506995.08201338518981.3714560671506995.08201338
518991.3714560671506995.08201338519001.3714560671506995.08201338
519011.3714560671506995.08201338519021.3714560671506995.08201338
519031.3714560671506995.08201338519041.3714560671506995.08201338
519051.3714560671506995.08201338519061.3714560671506995.08201338
519071.3714560671506995.08201338519081.3714560671506995.08201338
519091.3714560671506995.08201338519101.3714560671506995.08201338
519111.3714560671506995.08201338519121.3714560671506995.08201338
519131.3714560671506995.08201338519141.3714560671506995.08201338
519151.3714560671506995.08201338519161.3714560671506995.08201338
519171.3714560671506995.08201338519181.3714560671506995.08201338
519191.3714560671506995.08201338519201.3714560671506995.08201338
519211.3714560671506995.08201338519221.3714560671506995.08201338
519231.3714560671506995.08201338519241.3714560671506995.08201338
519251.3714560671506995.08201338519261.3714560671506995.08201338
519271.3714560671506995.08201338519281.3714560671506995.08201338
519291.3714560671506995.08201338519301.3714560671506995.08201338
519311.3714560671506995.08201338519321.3714560671506995.08201338
519331.3714560671506995.08201338519341.3714560671506995.08201338
519351.3714560671506995.08201338518921.3714560671506985.08201338
518931.3714560671506985.08201338518941.3714560671506985.08201338
518951.3714560671506985.08201338518961.3714560671506985.08201338
518971.3714560671506985.08201338518981.3714560671506985.08201338
518991.3714560671506985.08201338519001.3714560671506985.08201338
519011.3714560671506985.08201338519021.3714560671506985.08201338
519031.3714560671506985.08201338519041.3714560671506985.08201338
519051.3714560671506985.08201338519061.3714560671506985.08201338
519071.3714560671506985.08201338519081.3714560671506985.08201338
519091.3714560671506985.08201338519101.3714560671506985.08201338
519111.3714560671506985.08201338519121.3714560671506985.08201338
519131.3714560671506985.08201338519141.3714560671506985.08201338
519151.3714560671506985.08201338519161.3714560671506985.08201338
519171.3714560671506985.08201338519181.3714560671506985.08201338
519191.3714560671506985.08201338519201.3714560671506985.08201338
519211.3714560671506985.08201338519221.3714560671506985.08201338
519231.3714560671506985.08201338519241.3714560671506985.08201338
519251.3714560671506985.08201338519261.3714560671506985.08201338
519271.3714560671506985.08201338519281.3714560671506985.08201338
519291.3714560671506985.08201338519301.3714560671506985.08201338
519311.3714560671506985.08201338519321.3714560671506985.08201338
519331.3714560671506985.08201338519341.3714560671506985.08201338
519351.3714560671506985.08201338518881.3714560671506975.08201338
518891.3714560671506975.08201338518901.3714560671506975.08201338
518911.3714560671506975.08201338518921.3714560671506975.08201338
518931.3714560671506975.08201338518941.3714560671506975.08201338
518951.3714560671506975.08201338518961.3714560671506975.08201338
518971.3714560671506975.08201338518981.3714560671506975.08201338
518991.3714560671506975.08201338519001.3714560671506975.08201338
519011.3714560671506975.08201338519021.3714560671506975.08201338
519031.3714560671506975.08201338519041.3714560671506975.08201338
519051.3714560671506975.08201338519061.3714560671506975.08201338
519071.3714560671506975.08201338519081.3714560671506975.08201338
519091.3714560671506975.08201338519101.3714560671506975.08201338
519111.3714560671506975.08201338519121.3714560671506975.08201338
519131.3714560671506975.08201338519141.3714560671506975.08201338
519151.3714560671506975.08201338519161.3714560671506975.08201338
519171.3714560671506975.08201338519181.3714560671506975.08201338
519191.3714560671506975.08201338519201.3714560671506975.08201338
519211.3714560671506975.08201338519221.3714560671506975.08201338
519231.3714560671506975.08201338519241.3714560671506975.08201338
519251.3714560671506975.08201338519261.3714560671506975.08201338
519271.3714560671506975.08201338519281.3714560671506975.08201338
519291.3714560671506975.08201338519301.3714560671506975.08201338
519311.3714560671506975.08201338519321.3714560671506975.08201338
519331.3714560671506975.08201338519341.3714560671506975.08201338
519351.3714560671506975.08201338518841.3714560671506965.08201338
518851.3714560671506965.08201338518861.3714560671506965.08201338
518871.3714560671506965.08201338518881.3714560671506965.08201338
518891.3714560671506965.08201338518901.3714560671506965.08201338
518911.3714560671506965.08201338518921.3714560671506965.08201338
518931.3714560671506965.08201338518941.3714560671506965.08201338
518951.3714560671506965.08201338518961.3714560671506965.08201338
518971.3714560671506965.08201338518981.3714560671506965.08201338
518991.3714560671506965.08201338519001.3714560671506965.08201338
519011.3714560671506965.08201338519021.3714560671506965.08201338
519031.3714560671506965.08201338519041.3714560671506965.08201338
519051.3714560671506965.08201338519061.3714560671506965.08201338
519071.3714560671506965.08201338519081.3714560671506965.08201338
519091.3714560671506965.08201338519101.3714560671506965.08201338
519111.3714560671506965.08201338519121.3714560671506965.08201338
519131.3714560671506965.08201338519141.3714560671506965.08201338
519151.3714560671506965.08201338519161.3714560671506965.08201338
519171.3714560671506965.08201338519181.3714560671506965.08201338
519191.3714560671506965.08201338519201.3714560671506965.08201338
519211.3714560671506965.08201338519221.3714560671506965.08201338
519231.3714560671506965.08201338519241.3714560671506965.08201338
519251.3714560671506965.08201338519261.3714560671506965.08201338
519271.3714560671506965.08201338519281.3714560671506965.08201338
519291.3714560671506965.08201338519301.3714560671506965.08201338
519311.3714560671506965.08201338519321.3714560671506965.08201338
519331.3714560671506965.08201338519341.3714560671506965.08201338
519351.3714560671506965.08201338518801.3714560671506955.08201338
518811.3714560671506955.08201338518821.3714560671506955.08201338
518831.3714560671506955.08201338518841.3714560671506955.08201338
518851.3714560671506955.08201338518861.3714560671506955.08201338
518871.3714560671506955.08201338518881.3714560671506955.08201338
518891.3714560671506955.08201338518901.3714560671506955.08201338
518911.3714560671506955.08201338518921.3714560671506955.08201338
518931.3714560671506955.08201338518941.3714560671506955.08201338
518951.3714560671506955.08201338518961.3714560671506955.08201338
518971.3714560671506955.08201338518981.3714560671506955.08201338
518991.3714560671506955.08201338519001.3714560671506955.08201338
519011.3714560671506955.08201338519021.3714560671506955.08201338
519031.3714560671506955.08201338519041.3714560671506955.08201338
519051.3714560671506955.08201338519061.3714560671506955.08201338
519071.3714560671506955.08201338519081.3714560671506955.08201338
519091.3714560671506955.08201338519101.3714560671506955.08201338
519111.3714560671506955.08201338519121.3714560671506955.08201338
519131.3714560671506955.08201338519141.3714560671506955.08201338
519151.3714560671506955.08201338519161.3714560671506955.08201338
519171.3714560671506955.08201338519181.3714560671506955.08201338
519191.3714560671506955.08201338519201.3714560671506955.08201338
519211.3714560671506955.08201338519221.3714560671506955.08201338
519231.3714560671506955.08201338519241.3714560671506955.08201338
519251.3714560671506955.08201338519261.3714560671506955.08201338
519271.3714560671506955.08201338519281.3714560671506955.08201338
519291.3714560671506955.08201338519301.3714560671506955.08201338
519311.3714560671506955.08201338519321.3714560671506955.08201338
519331.3714560671506955.08201338519341.3714560671506955.08201338
519351.3714560671506955.08201338518771.3714560671506945.08201338
518781.3714560671506945.08201338518791.3714560671506945.08201338
518801.3714560671506945.08201338518811.3714560671506945.08201338
518821.3714560671506945.08201338518831.3714560671506945.08201338
518841.3714560671506945.08201338518851.3714560671506945.08201338
518861.3714560671506945.08201338518871.3714560671506945.08201338
518881.3714560671506945.08201338518891.3714560671506945.08201338
518901.3714560671506945.08201338518911.3714560671506945.08201338
518921.3714560671506945.08201338518931.3714560671506945.08201338
518941.3714560671506945.08201338518951.3714560671506945.08201338
518961.3714560671506945.08201338518971.3714560671506945.08201338
518981.3714560671506945.08201338518991.3714560671506945.08201338
519001.3714560671506945.08201338519011.3714560671506945.08201338
519021.3714560671506945.08201338519031.3714560671506945.08201338
519041.3714560671506945.08201338519051.3714560671506945.08201338
519061.3714560671506945.08201338519071.3714560671506945.08201338
519081.3714560671506945.08201338519091.3714560671506945.08201338
519101.3714560671506945.08201338519111.3714560671506945.08201338
519121.3714560671506945.08201338519131.3714560671506945.08201338
519141.3714560671506945.08201338519151.3714560671506945.08201338
519161.3714560671506945.08201338519171.3714560671506945.08201338
519181.3714560671506945.08201338519191.3714560671506945.08201338
519201.3714560671506945.08201338519211.3714560671506945.08201338
519221.3714560671506945.08201338519231.3714560671506945.08201338
519241.3714560671506945.08201338519251.3714560671506945.08201338
519261.3714560671506945.08201338519271.3714560671506945.08201338
519281.3714560671506945.08201338519291.3714560671506945.08201338
519301.3714560671506945.08201338519311.3714560671506945.08201338
519321.3714560671506945.08201338519331.3714560671506945.08201338
519341.3714560671506945.08201338519351.3714560671506945.08201338
519361.3714560671506945.08201338518731.3714560671506935.08201338
518741.3714560671506935.08201338518751.3714560671506935.08201338
518761.3714560671506935.08201338518771.3714560671506935.08201338
518781.3714560671506935.08201338518791.3714560671506935.08201338
518801.3714560671506935.08201338518811.3714560671506935.08201338
518821.3714560671506935.08201338518831.3714560671506935.08201338
518841.3714560671506935.08201338518851.3714560671506935.08201338
518861.3714560671506935.08201338518871.3714560671506935.08201338
518881.3714560671506935.08201338518891.3714560671506935.08201338
518901.3714560671506935.08201338518911.3714560671506935.08201338
518921.3714560671506935.08201338518931.3714560671506935.08201338
518941.3714560671506935.08201338518951.3714560671506935.08201338
518961.3714560671506935.08201338518971.3714560671506935.08201338
518981.3714560671506935.08201338518991.3714560671506935.08201338
519001.3714560671506935.08201338519011.3714560671506935.08201338
519021.3714560671506935.08201338519031.3714560671506935.08201338
519041.3714560671506935.08201338519051.3714560671506935.08201338
519061.3714560671506935.08201338519071.3714560671506935.08201338
519081.3714560671506935.08201338519091.3714560671506935.08201338
519101.3714560671506935.08201338519111.3714560671506935.08201338
519121.3714560671506935.08201338519131.3714560671506935.08201338
519141.3714560671506935.08201338519151.3714560671506935.08201338
519161.3714560671506935.08201338519171.3714560671506935.08201338
519181.3714560671506935.08201338519191.3714560671506935.08201338
519201.3714560671506935.08201338519211.3714560671506935.08201338
519221.3714560671506935.08201338519231.3714560671506935.08201338
519241.3714560671506935.08201338519251.3714560671506935.08201338
519261.3714560671506935.08201338519271.3714560671506935.08201338
519281.3714560671506935.08201338519291.3714560671506935.08201338
519301.3714560671506935.08201338519311.3714560671506935.08201338
519321.3714560671506935.08201338519331.3714560671506935.08201338
519341.3714560671506935.08201338519351.3714560671506935.08201338
519361.3714560671506935.08201338518691.3714560671506925.08201338
518701.3714560671506925.08201338518711.3714560671506925.08201338
518721.3714560671506925.08201338518731.3714560671506925.08201338
518741.3714560671506925.08201338518751.3714560671506925.08201338
518761.3714560671506925.08201338518771.3714560671506925.08201338
518781.3714560671506925.08201338518791.3714560671506925.08201338
518801.3714560671506925.08201338518811.3714560671506925.08201338
518821.3714560671506925.08201338518831.3714560671506925.08201338
518841.3714560671506925.08201338518851.3714560671506925.08201338
518861.3714560671506925.08201338518871.3714560671506925.08201338
518881.3714560671506925.08201338518891.3714560671506925.08201338
518901.3714560671506925.08201338518911.3714560671506925.08201338
518921.3714560671506925.08201338518931.3714560671506925.08201338
518941.3714560671506925.08201338518951.3714560671506925.08201338
518961.3714560671506925.08201338518971.3714560671506925.08201338
518981.3714560671506925.08201338518991.3714560671506925.08201338
519001.3714560671506925.08201338519011.3714560671506925.08201338
519021.3714560671506925.08201338519031.3714560671506925.08201338
519041.3714560671506925.08201338519051.3714560671506925.08201338
519061.3714560671506925.08201338519071.3714560671506925.08201338
519081.3714560671506925.08201338519091.3714560671506925.08201338
519101.3714560671506925.08201338519111.3714560671506925.08201338
519121.3714560671506925.08201338519131.3714560671506925.08201338
519141.3714560671506925.08201338519151.3714560671506925.08201338
519161.3714560671506925.08201338519171.3714560671506925.08201338
519181.3714560671506925.08201338519191.3714560671506925.08201338
519201.3714560671506925.08201338519211.3714560671506925.08201338
519221.3714560671506925.08201338519231.3714560671506925.08201338
519241.3714560671506925.08201338519251.3714560671506925.08201338
519261.3714560671506925.08201338519271.3714560671506925.08201338
519281.3714560671506925.08201338519291.3714560671506925.08201338
519301.3714560671506925.08201338519311.3714560671506925.08201338
519321.3714560671506925.08201338519331.3714560671506925.08201338
519341.3714560671506925.08201338519351.3714560671506925.08201338
519361.3714560671506925.08201338518651.3714560671506915.08201338
518661.3714560671506915.08201338518671.3714560671506915.08201338
518681.3714560671506915.08201338518691.3714560671506915.08201338
518701.3714560671506915.08201338518711.3714560671506915.08201338
518721.3714560671506915.08201338518731.3714560671506915.08201338
518741.3714560671506915.08201338518751.3714560671506915.08201338
518761.3714560671506915.08201338518771.3714560671506915.08201338
518781.3714560671506915.08201338518791.3714560671506915.08201338
518801.3714560671506915.08201338518811.3714560671506915.08201338
518821.3714560671506915.08201338518831.3714560671506915.08201338
518841.3714560671506915.08201338518851.3714560671506915.08201338
518861.3714560671506915.08201338518871.3714560671506915.08201338
518881.3714560671506915.08201338518891.3714560671506915.08201338
518901.3714560671506915.08201338518911.3714560671506915.08201338
518921.3714560671506915.08201338518931.3714560671506915.08201338
518941.3714560671506915.08201338518951.3714560671506915.08201338
518961.3714560671506915.08201338518971.3714560671506915.08201338
518981.3714560671506915.08201338518991.3714560671506915.08201338
519001.3714560671506915.08201338519011.3714560671506915.08201338
519021.3714560671506915.08201338519031.3714560671506915.08201338
519041.3714560671506915.08201338519051.3714560671506915.08201338
519061.3714560671506915.08201338519071.3714560671506915.08201338
519081.3714560671506915.08201338519091.3714560671506915.08201338
519101.3714560671506915.08201338519111.3714560671506915.08201338
519121.3714560671506915.08201338519131.3714560671506915.08201338
519141.3714560671506915.08201338519151.3714560671506915.08201338
519161.3714560671506915.08201338519171.3714560671506915.08201338
519181.3714560671506915.08201338519191.3714560671506915.08201338
519201.3714560671506915.08201338519211.3714560671506915.08201338
519221.3714560671506915.08201338519231.3714560671506915.08201338
519241.3714560671506915.08201338519251.3714560671506915.08201338
519261.3714560671506915.08201338519271.3714560671506915.08201338
519281.3714560671506915.08201338519291.3714560671506915.08201338
519301.3714560671506915.08201338519311.3714560671506915.08201338
519321.3714560671506915.08201338519331.3714560671506915.08201338
519341.3714560671506915.08201338519351.3714560671506915.08201338
518621.3714560671506905.08201338518631.3714560671506905.08201338
518641.3714560671506905.08201338518651.3714560671506905.08201338
518661.3714560671506905.08201338518671.3714560671506905.08201338