Geom Title=geo
Program Version=6.70
Viewing Rectangle= 514326.657113465 , 519603.929126033 , 1507257.93258692 , 1504340.26431217 

Storage Area=1               ,517304.3138476,1505855.2039849
Storage Area Surface Line= 123 
514665.895227158 1505818.7572205                
514721.0752932921505882.21429656                
515786.7403205071506329.86258307                
 517201.419266021506907.83092775                
517259.3583354611506903.69242279                
517306.2613916751506870.58438311                
517400.0675041031506665.03863676                
517429.0370388241506673.31564668                
517963.5939294981506911.27968188                
518209.1452237951506872.65363559                
518289.8460705161506872.28733614                
519228.5969456221507121.10423485                
519324.533355322 1507125.3113017                
519364.0531254621507087.34132647                
519364.0531254621506975.75609313                
519109.3358569751505991.63632687                
519109.3358569751505942.04288983                
519129.9523669651505809.92287397                
519149.9468401321505689.42631991                
519164.980910165 1505609.9993309                
519168.8553974341505554.20671423                
519177.5347786311505531.34723935                
519178.7748794141505325.61196538                
519188.8485463131505310.88891376                
519188.0932530461504980.39514973                
519197.392022491 1504962.5725083                
519198.6948436651504636.34068027                
519185.5274614971504614.38382907                
519186.2653923011504599.62521299                
519135.3481668221504553.13557233                
519066.7206020471504550.92177992                
518718.7862279431504726.91827668                
518696.6483038221504728.39413829                
518676.7241721131504717.32517623                
 518617.689707791504718.06310704                
518597.7655760811504705.51828337                
518540.2069733671504652.38726548                
518528.4000805021504650.17347306                
518512.1656028131504639.84244181                
 518487.813886281504639.84244181                
518455.7138963041504616.59762148                
 518447.596657461504596.67348977                
518413.6518404741504561.99074198                
518402.5828784141504561.99074198                
518386.3484007251504551.65971073                
518350.9277221311504552.39764153                
518328.0518672061504564.20453439                
518311.0794587131504564.20453439                
518291.1553270041504536.90109464                
518285.9898113761504519.19075535                
518240.2381015261504484.50800756                
518212.9346617761504486.72179997                
518198.5450110981504472.88559739                
518107.0415913971504472.88559739                
518067.9312587831504514.20972242                
518059.8140199391504530.44420011                
518060.5519507431504542.98902378                
 518039.889888231504579.88556398                
518041.3657498381504592.43038765                
518031.0347185811504606.45107293                
518029.5588569731504621.94761981                
518042.8416114461504642.60968232                
518040.9967844361504684.30277275                
  518052.80367731504705.70276607                
518052.0657464961504737.43379064                
518035.0933380041504760.30964557                
518008.527829058 1504766.9510228                
517962.776119208 1504783.9234313                
517953.5519841571504793.88549715                
517933.6278524481504804.21652841                
517914.4416515431504841.11306861                
517914.4416515431504896.45787891                
517935.4726794591504937.41303854                
 517922.927855791504961.02682427                
517894.8864852371504989.06819482                
517886.0313155881505006.77853412                
517885.6623501861505086.10609555                
517864.2623568691505127.43022058                
517855.4071872211505136.28539022                
517837.6968479241505169.49227641                
517838.065813326 1505241.4405298                
517816.665820009   1505278.33707                
517817.4037508131505317.44740261                
517788.2554840531505365.78187028                
517787.5175532491505458.02322078                
 517800.431342321505480.53011031                
517774.6037641791505506.35768845                
517694.1693065391505503.40596523                
517676.4589672421505492.33700317                
517415.6004280151505494.91976099                
517393.4625038941505483.11286812                
516839.2764700621505484.58872973                
516481.7489955071505349.91635799                
516438.2110780681505347.70256558                
516399.1007454541505367.62669729                
516303.5387063321505529.60250878                
516304.2766371361505877.90584828                
516279.9249206031505900.78170321                
516057.0698177831505677.18866958                
516038.2525822811505670.17832694                
515960.031917053 1505589.7438693                
515949.700885796 1505589.7438693                
515931.9905464991505580.15076885                
515585.5320340041505579.04387265                
515570.7734179231505569.45077219                
515338.694180054 1505571.2955992                
515085.2149488671505522.96113154                
514675.2943872251505358.77152764                
514642.3891582491505358.40256224                
514621.7270957361505366.51980108                
514615.8236493031505367.25773189                
514567.8581470411505422.60254219                
514567.8581470411505477.20942169                
514591.6227613731505518.90251212                
514588.6710381571505526.28182016                
514602.6917234341505549.89560589                
514566.5331140361505599.33696976                
514568.8223207491505654.31281466                
514578.4154212021505681.61625441                
514644.8291935651505748.03002677                
514647.0806931281505780.86794755                
514664.7910324241505817.02655695                
514665.895227158 1505818.7572205                
Storage Area Type= 1 
Storage Area Area=
Storage Area Min Elev=
Storage Area Is2D=-1
Storage Area Point Generation Data=0,0,10,10
Storage Area 2D Points= 61811 
519271.533114036 1507120.3113017519281.533114036 1507120.3113017
519291.533114036 1507120.3113017519301.533114036 1507120.3113017
519311.533114036 1507120.3113017519321.533114036 1507120.3113017
519201.533114036 1507110.3113017519211.533114036 1507110.3113017
519221.533114036 1507110.3113017519231.533114036 1507110.3113017
519241.533114036 1507110.3113017519251.533114036 1507110.3113017
519261.533114036 1507110.3113017519271.533114036 1507110.3113017
519281.533114036 1507110.3113017519291.533114036 1507110.3113017
519301.533114036 1507110.3113017519311.533114036 1507110.3113017
519321.533114036 1507110.3113017519331.533114036 1507110.3113017
519161.533114036 1507100.3113017519171.533114036 1507100.3113017
519181.533114036 1507100.3113017519191.533114036 1507100.3113017
519201.533114036 1507100.3113017519211.533114036 1507100.3113017
519221.533114036 1507100.3113017519231.533114036 1507100.3113017
519241.533114036 1507100.3113017519251.533114036 1507100.3113017
519261.533114036 1507100.3113017519271.533114036 1507100.3113017
519281.533114036 1507100.3113017519291.533114036 1507100.3113017
519301.533114036 1507100.3113017519311.533114036 1507100.3113017
519321.533114036 1507100.3113017519331.533114036 1507100.3113017
519341.533114036 1507100.3113017519131.533114036 1507090.3113017
519141.533114036 1507090.3113017519151.533114036 1507090.3113017
519161.533114036 1507090.3113017519171.533114036 1507090.3113017
519181.533114036 1507090.3113017519191.533114036 1507090.3113017
519201.533114036 1507090.3113017519211.533114036 1507090.3113017
519221.533114036 1507090.3113017519231.533114036 1507090.3113017
519241.533114036 1507090.3113017519251.533114036 1507090.3113017
519261.533114036 1507090.3113017519271.533114036 1507090.3113017
519281.533114036 1507090.3113017519291.533114036 1507090.3113017
519301.533114036 1507090.3113017519311.533114036 1507090.3113017
519321.533114036 1507090.3113017519331.533114036 1507090.3113017
519341.533114036 1507090.3113017519351.533114036 1507090.3113017
519091.533114036 1507080.3113017519101.533114036 1507080.3113017
519111.533114036 1507080.3113017519121.533114036 1507080.3113017
519131.533114036 1507080.3113017519141.533114036 1507080.3113017
519151.533114036 1507080.3113017519161.533114036 1507080.3113017
519171.533114036 1507080.3113017519181.533114036 1507080.3113017
519191.533114036 1507080.3113017519201.533114036 1507080.3113017
519211.533114036 1507080.3113017519221.533114036 1507080.3113017
519231.533114036 1507080.3113017519241.533114036 1507080.3113017
519251.533114036 1507080.3113017519261.533114036 1507080.3113017
519271.533114036 1507080.3113017519281.533114036 1507080.3113017
519291.533114036 1507080.3113017519301.533114036 1507080.3113017
519311.533114036 1507080.3113017519321.533114036 1507080.3113017
519331.533114036 1507080.3113017519341.533114036 1507080.3113017
519351.533114036 1507080.3113017519361.533114036 1507080.3113017
519051.533114036 1507070.3113017519061.533114036 1507070.3113017
519071.533114036 1507070.3113017519081.533114036 1507070.3113017
519091.533114036 1507070.3113017519101.533114036 1507070.3113017
519111.533114036 1507070.3113017519121.533114036 1507070.3113017
519131.533114036 1507070.3113017519141.533114036 1507070.3113017
519151.533114036 1507070.3113017519161.533114036 1507070.3113017
519171.533114036 1507070.3113017519181.533114036 1507070.3113017
519191.533114036 1507070.3113017519201.533114036 1507070.3113017
519211.533114036 1507070.3113017519221.533114036 1507070.3113017
519231.533114036 1507070.3113017519241.533114036 1507070.3113017
519251.533114036 1507070.3113017519261.533114036 1507070.3113017
519271.533114036 1507070.3113017519281.533114036 1507070.3113017
519291.533114036 1507070.3113017519301.533114036 1507070.3113017
519311.533114036 1507070.3113017519321.533114036 1507070.3113017
519331.533114036 1507070.3113017519341.533114036 1507070.3113017
519351.533114036 1507070.3113017519361.533114036 1507070.3113017
519011.533114036 1507060.3113017519021.533114036 1507060.3113017
519031.533114036 1507060.3113017519041.533114036 1507060.3113017
519051.533114036 1507060.3113017519061.533114036 1507060.3113017
519071.533114036 1507060.3113017519081.533114036 1507060.3113017
519091.533114036 1507060.3113017519101.533114036 1507060.3113017
519111.533114036 1507060.3113017519121.533114036 1507060.3113017
519131.533114036 1507060.3113017519141.533114036 1507060.3113017
519151.533114036 1507060.3113017519161.533114036 1507060.3113017
519171.533114036 1507060.3113017519181.533114036 1507060.3113017
519191.533114036 1507060.3113017519201.533114036 1507060.3113017
519211.533114036 1507060.3113017519221.533114036 1507060.3113017
519231.533114036 1507060.3113017519241.533114036 1507060.3113017
519251.533114036 1507060.3113017519261.533114036 1507060.3113017
519271.533114036 1507060.3113017519281.533114036 1507060.3113017
519291.533114036 1507060.3113017519301.533114036 1507060.3113017
519311.533114036 1507060.3113017519321.533114036 1507060.3113017
519331.533114036 1507060.3113017519341.533114036 1507060.3113017
519351.533114036 1507060.3113017519361.533114036 1507060.3113017
518971.533114036 1507050.3113017518981.533114036 1507050.3113017
518991.533114036 1507050.3113017519001.533114036 1507050.3113017
519011.533114036 1507050.3113017519021.533114036 1507050.3113017
519031.533114036 1507050.3113017519041.533114036 1507050.3113017
519051.533114036 1507050.3113017519061.533114036 1507050.3113017
519071.533114036 1507050.3113017519081.533114036 1507050.3113017
519091.533114036 1507050.3113017519101.533114036 1507050.3113017
519111.533114036 1507050.3113017519121.533114036 1507050.3113017
519131.533114036 1507050.3113017519141.533114036 1507050.3113017
519151.533114036 1507050.3113017519161.533114036 1507050.3113017
519171.533114036 1507050.3113017519181.533114036 1507050.3113017
519191.533114036 1507050.3113017519201.533114036 1507050.3113017
519211.533114036 1507050.3113017519221.533114036 1507050.3113017
519231.533114036 1507050.3113017519241.533114036 1507050.3113017
519251.533114036 1507050.3113017519261.533114036 1507050.3113017
519271.533114036 1507050.3113017519281.533114036 1507050.3113017
519291.533114036 1507050.3113017519301.533114036 1507050.3113017
519311.533114036 1507050.3113017519321.533114036 1507050.3113017
519331.533114036 1507050.3113017519341.533114036 1507050.3113017
519351.533114036 1507050.3113017519361.533114036 1507050.3113017
518941.533114036 1507040.3113017518951.533114036 1507040.3113017
518961.533114036 1507040.3113017518971.533114036 1507040.3113017
518981.533114036 1507040.3113017518991.533114036 1507040.3113017
519001.533114036 1507040.3113017519011.533114036 1507040.3113017
519021.533114036 1507040.3113017519031.533114036 1507040.3113017
519041.533114036 1507040.3113017519051.533114036 1507040.3113017
519061.533114036 1507040.3113017519071.533114036 1507040.3113017
519081.533114036 1507040.3113017519091.533114036 1507040.3113017
519101.533114036 1507040.3113017519111.533114036 1507040.3113017
519121.533114036 1507040.3113017519131.533114036 1507040.3113017
519141.533114036 1507040.3113017519151.533114036 1507040.3113017
519161.533114036 1507040.3113017519171.533114036 1507040.3113017
519181.533114036 1507040.3113017519191.533114036 1507040.3113017
519201.533114036 1507040.3113017519211.533114036 1507040.3113017
519221.533114036 1507040.3113017519231.533114036 1507040.3113017
519241.533114036 1507040.3113017519251.533114036 1507040.3113017
519261.533114036 1507040.3113017519271.533114036 1507040.3113017
519281.533114036 1507040.3113017519291.533114036 1507040.3113017
519301.533114036 1507040.3113017519311.533114036 1507040.3113017
519321.533114036 1507040.3113017519331.533114036 1507040.3113017
519341.533114036 1507040.3113017519351.533114036 1507040.3113017
519361.533114036 1507040.3113017518901.533114036 1507030.3113017
518911.533114036 1507030.3113017518921.533114036 1507030.3113017
518931.533114036 1507030.3113017518941.533114036 1507030.3113017
518951.533114036 1507030.3113017518961.533114036 1507030.3113017
518971.533114036 1507030.3113017518981.533114036 1507030.3113017
518991.533114036 1507030.3113017519001.533114036 1507030.3113017
519011.533114036 1507030.3113017519021.533114036 1507030.3113017
519031.533114036 1507030.3113017519041.533114036 1507030.3113017
519051.533114036 1507030.3113017519061.533114036 1507030.3113017
519071.533114036 1507030.3113017519081.533114036 1507030.3113017
519091.533114036 1507030.3113017519101.533114036 1507030.3113017
519111.533114036 1507030.3113017519121.533114036 1507030.3113017
519131.533114036 1507030.3113017519141.533114036 1507030.3113017
519151.533114036 1507030.3113017519161.533114036 1507030.3113017
519171.533114036 1507030.3113017519181.533114036 1507030.3113017
519191.533114036 1507030.3113017519201.533114036 1507030.3113017
519211.533114036 1507030.3113017519221.533114036 1507030.3113017
519231.533114036 1507030.3113017519241.533114036 1507030.3113017
519251.533114036 1507030.3113017519261.533114036 1507030.3113017
519271.533114036 1507030.3113017519281.533114036 1507030.3113017
519291.533114036 1507030.3113017519301.533114036 1507030.3113017
519311.533114036 1507030.3113017519321.533114036 1507030.3113017
519331.533114036 1507030.3113017519341.533114036 1507030.3113017
519351.533114036 1507030.3113017519361.533114036 1507030.3113017
518861.533114036 1507020.3113017518871.533114036 1507020.3113017
518881.533114036 1507020.3113017518891.533114036 1507020.3113017
518901.533114036 1507020.3113017518911.533114036 1507020.3113017
518921.533114036 1507020.3113017518931.533114036 1507020.3113017
518941.533114036 1507020.3113017518951.533114036 1507020.3113017
518961.533114036 1507020.3113017518971.533114036 1507020.3113017
518981.533114036 1507020.3113017518991.533114036 1507020.3113017
519001.533114036 1507020.3113017519011.533114036 1507020.3113017
519021.533114036 1507020.3113017519031.533114036 1507020.3113017
519041.533114036 1507020.3113017519051.533114036 1507020.3113017
519061.533114036 1507020.3113017519071.533114036 1507020.3113017
519081.533114036 1507020.3113017519091.533114036 1507020.3113017
519101.533114036 1507020.3113017519111.533114036 1507020.3113017
519121.533114036 1507020.3113017519131.533114036 1507020.3113017
519141.533114036 1507020.3113017519151.533114036 1507020.3113017
519161.533114036 1507020.3113017519171.533114036 1507020.3113017
519181.533114036 1507020.3113017519191.533114036 1507020.3113017
519201.533114036 1507020.3113017519211.533114036 1507020.3113017
519221.533114036 1507020.3113017519231.533114036 1507020.3113017
519241.533114036 1507020.3113017519251.533114036 1507020.3113017
519261.533114036 1507020.3113017519271.533114036 1507020.3113017
519281.533114036 1507020.3113017519291.533114036 1507020.3113017
519301.533114036 1507020.3113017519311.533114036 1507020.3113017
519321.533114036 1507020.3113017519331.533114036 1507020.3113017
519341.533114036 1507020.3113017519351.533114036 1507020.3113017
519361.533114036 1507020.3113017518821.533114036 1507010.3113017
518831.533114036 1507010.3113017518841.533114036 1507010.3113017
518851.533114036 1507010.3113017518861.533114036 1507010.3113017
518871.533114036 1507010.3113017518881.533114036 1507010.3113017
518891.533114036 1507010.3113017518901.533114036 1507010.3113017
518911.533114036 1507010.3113017518921.533114036 1507010.3113017
518931.533114036 1507010.3113017518941.533114036 1507010.3113017
518951.533114036 1507010.3113017518961.533114036 1507010.3113017
518971.533114036 1507010.3113017518981.533114036 1507010.3113017
518991.533114036 1507010.3113017519001.533114036 1507010.3113017
519011.533114036 1507010.3113017519021.533114036 1507010.3113017
519031.533114036 1507010.3113017519041.533114036 1507010.3113017
519051.533114036 1507010.3113017519061.533114036 1507010.3113017
519071.533114036 1507010.3113017519081.533114036 1507010.3113017
519091.533114036 1507010.3113017519101.533114036 1507010.3113017
519111.533114036 1507010.3113017519121.533114036 1507010.3113017
519131.533114036 1507010.3113017519141.533114036 1507010.3113017
519151.533114036 1507010.3113017519161.533114036 1507010.3113017
519171.533114036 1507010.3113017519181.533114036 1507010.3113017
519191.533114036 1507010.3113017519201.533114036 1507010.3113017
519211.533114036 1507010.3113017519221.533114036 1507010.3113017
519231.533114036 1507010.3113017519241.533114036 1507010.3113017
519251.533114036 1507010.3113017519261.533114036 1507010.3113017
519271.533114036 1507010.3113017519281.533114036 1507010.3113017
519291.533114036 1507010.3113017519301.533114036 1507010.3113017
519311.533114036 1507010.3113017519321.533114036 1507010.3113017
519331.533114036 1507010.3113017519341.533114036 1507010.3113017
519351.533114036 1507010.3113017519361.533114036 1507010.3113017
518791.533114036 1507000.3113017518801.533114036 1507000.3113017
518811.533114036 1507000.3113017518821.533114036 1507000.3113017
518831.533114036 1507000.3113017518841.533114036 1507000.3113017
518851.533114036 1507000.3113017518861.533114036 1507000.3113017
518871.533114036 1507000.3113017518881.533114036 1507000.3113017
518891.533114036 1507000.3113017518901.533114036 1507000.3113017
518911.533114036 1507000.3113017518921.533114036 1507000.3113017
518931.533114036 1507000.3113017518941.533114036 1507000.3113017
518951.533114036 1507000.3113017518961.533114036 1507000.3113017
518971.533114036 1507000.3113017518981.533114036 1507000.3113017
518991.533114036 1507000.3113017519001.533114036 1507000.3113017
519011.533114036 1507000.3113017519021.533114036 1507000.3113017
519031.533114036 1507000.3113017519041.533114036 1507000.3113017
519051.533114036 1507000.3113017519061.533114036 1507000.3113017
519071.533114036 1507000.3113017519081.533114036 1507000.3113017
519091.533114036 1507000.3113017519101.533114036 1507000.3113017
519111.533114036 1507000.3113017519121.533114036 1507000.3113017
519131.533114036 1507000.3113017519141.533114036 1507000.3113017
519151.533114036 1507000.3113017519161.533114036 1507000.3113017
519171.533114036 1507000.3113017519181.533114036 1507000.3113017
519191.533114036 1507000.3113017519201.533114036 1507000.3113017
519211.533114036 1507000.3113017519221.533114036 1507000.3113017
519231.533114036 1507000.3113017519241.533114036 1507000.3113017
519251.533114036 1507000.3113017519261.533114036 1507000.3113017
519271.533114036 1507000.3113017519281.533114036 1507000.3113017
519291.533114036 1507000.3113017519301.533114036 1507000.3113017
519311.533114036 1507000.3113017519321.533114036 1507000.3113017
519331.533114036 1507000.3113017519341.533114036 1507000.3113017
519351.533114036 1507000.3113017519361.533114036 1507000.3113017
518751.533114036 1506990.3113017518761.533114036 1506990.3113017
518771.533114036 1506990.3113017518781.533114036 1506990.3113017
518791.533114036 1506990.3113017518801.533114036 1506990.3113017
518811.533114036 1506990.3113017518821.533114036 1506990.3113017
518831.533114036 1506990.3113017518841.533114036 1506990.3113017
518851.533114036 1506990.3113017518861.533114036 1506990.3113017
518871.533114036 1506990.3113017518881.533114036 1506990.3113017
518891.533114036 1506990.3113017518901.533114036 1506990.3113017
518911.533114036 1506990.3113017518921.533114036 1506990.3113017
518931.533114036 1506990.3113017518941.533114036 1506990.3113017
518951.533114036 1506990.3113017518961.533114036 1506990.3113017
518971.533114036 1506990.3113017518981.533114036 1506990.3113017
518991.533114036 1506990.3113017519001.533114036 1506990.3113017
519011.533114036 1506990.3113017519021.533114036 1506990.3113017
519031.533114036 1506990.3113017519041.533114036 1506990.3113017
519051.533114036 1506990.3113017519061.533114036 1506990.3113017
519071.533114036 1506990.3113017519081.533114036 1506990.3113017
519091.533114036 1506990.3113017519101.533114036 1506990.3113017
519111.533114036 1506990.3113017519121.533114036 1506990.3113017
519131.533114036 1506990.3113017519141.533114036 1506990.3113017
519151.533114036 1506990.3113017519161.533114036 1506990.3113017
519171.533114036 1506990.3113017519181.533114036 1506990.3113017
519191.533114036 1506990.3113017519201.533114036 1506990.3113017
519211.533114036 1506990.3113017519221.533114036 1506990.3113017
519231.533114036 1506990.3113017519241.533114036 1506990.3113017
519251.533114036 1506990.3113017519261.533114036 1506990.3113017
519271.533114036 1506990.3113017519281.533114036 1506990.3113017
519291.533114036 1506990.3113017519301.533114036 1506990.3113017
519311.533114036 1506990.3113017519321.533114036 1506990.3113017
519331.533114036 1506990.3113017519341.533114036 1506990.3113017
519351.533114036 1506990.3113017519361.533114036 1506990.3113017
518711.533114036 1506980.3113017518721.533114036 1506980.3113017
518731.533114036 1506980.3113017518741.533114036 1506980.3113017
518751.533114036 1506980.3113017518761.533114036 1506980.3113017
518771.533114036 1506980.3113017518781.533114036 1506980.3113017
518791.533114036 1506980.3113017518801.533114036 1506980.3113017
518811.533114036 1506980.3113017518821.533114036 1506980.3113017
518831.533114036 1506980.3113017518841.533114036 1506980.3113017
518851.533114036 1506980.3113017518861.533114036 1506980.3113017
518871.533114036 1506980.3113017518881.533114036 1506980.3113017
518891.533114036 1506980.3113017518901.533114036 1506980.3113017
518911.533114036 1506980.3113017518921.533114036 1506980.3113017
518931.533114036 1506980.3113017518941.533114036 1506980.3113017
518951.533114036 1506980.3113017518961.533114036 1506980.3113017
518971.533114036 1506980.3113017518981.533114036 1506980.3113017
518991.533114036 1506980.3113017519001.533114036 1506980.3113017
519011.533114036 1506980.3113017519021.533114036 1506980.3113017
519031.533114036 1506980.3113017519041.533114036 1506980.3113017
519051.533114036 1506980.3113017519061.533114036 1506980.3113017
519071.533114036 1506980.3113017519081.533114036 1506980.3113017
519091.533114036 1506980.3113017519101.533114036 1506980.3113017
519111.533114036 1506980.3113017519121.533114036 1506980.3113017
519131.533114036 1506980.3113017519141.533114036 1506980.3113017
519151.533114036 1506980.3113017519161.533114036 1506980.3113017
519171.533114036 1506980.3113017519181.533114036 1506980.3113017
519191.533114036 1506980.3113017519201.533114036 1506980.3113017
519211.533114036 1506980.3113017519221.533114036 1506980.3113017
519231.533114036 1506980.3113017519241.533114036 1506980.3113017
519251.533114036 1506980.3113017519261.533114036 1506980.3113017
519271.533114036 1506980.3113017519281.533114036 1506980.3113017
519291.533114036 1506980.3113017519301.533114036 1506980.3113017
519311.533114036 1506980.3113017519321.533114036 1506980.3113017
519331.533114036 1506980.3113017519341.533114036 1506980.3113017
519351.533114036 1506980.3113017519361.533114036 1506980.3113017
518671.533114036 1506970.3113017518681.533114036 1506970.3113017
518691.533114036 1506970.3113017518701.533114036 1506970.3113017
518711.533114036 1506970.3113017518721.533114036 1506970.3113017
518731.533114036 1506970.3113017518741.533114036 1506970.3113017
518751.533114036 1506970.3113017518761.533114036 1506970.3113017
518771.533114036 1506970.3113017518781.533114036 1506970.3113017
518791.533114036 1506970.3113017518801.533114036 1506970.3113017
518811.533114036 1506970.3113017518821.533114036 1506970.3113017
518831.533114036 1506970.3113017518841.533114036 1506970.3113017
518851.533114036 1506970.3113017518861.533114036 1506970.3113017
518871.533114036 1506970.3113017518881.533114036 1506970.3113017
518891.533114036 1506970.3113017518901.533114036 1506970.3113017
518911.533114036 1506970.3113017518921.533114036 1506970.3113017
518931.533114036 1506970.3113017518941.533114036 1506970.3113017
518951.533114036 1506970.3113017518961.533114036 1506970.3113017
518971.533114036 1506970.3113017518981.533114036 1506970.3113017
518991.533114036 1506970.3113017519001.533114036 1506970.3113017
519011.533114036 1506970.3113017519021.533114036 1506970.3113017
519031.533114036 1506970.3113017519041.533114036 1506970.3113017
519051.533114036 1506970.3113017519061.533114036 1506970.3113017
519071.533114036 1506970.3113017519081.533114036 1506970.3113017
519091.533114036 1506970.3113017519101.533114036 1506970.3113017
519111.533114036 1506970.3113017519121.533114036 1506970.3113017
519131.533114036 1506970.3113017519141.533114036 1506970.3113017
519151.533114036 1506970.3113017519161.533114036 1506970.3113017
519171.533114036 1506970.3113017519181.533114036 1506970.3113017
519191.533114036 1506970.3113017519201.533114036 1506970.3113017
519211.533114036 1506970.3113017519221.533114036 1506970.3113017
519231.533114036 1506970.3113017519241.533114036 1506970.3113017
519251.533114036 1506970.3113017519261.533114036 1506970.3113017
519271.533114036 1506970.3113017519281.533114036 1506970.3113017
519291.533114036 1506970.3113017519301.533114036 1506970.3113017
519311.533114036 1506970.3113017519321.533114036 1506970.3113017
519331.533114036 1506970.3113017519341.533114036 1506970.3113017
519351.533114036 1506970.3113017518641.533114036 1506960.3113017
518651.533114036 1506960.3113017518661.533114036 1506960.3113017
518671.533114036 1506960.3113017518681.533114036 1506960.3113017
518691.533114036 1506960.3113017518701.533114036 1506960.3113017
518711.533114036 1506960.3113017518721.533114036 1506960.3113017
518731.533114036 1506960.3113017518741.533114036 1506960.3113017
518751.533114036 1506960.3113017518761.533114036 1506960.3113017
518771.533114036 1506960.3113017518781.533114036 1506960.3113017
518791.533114036 1506960.3113017518801.533114036 1506960.3113017
518811.533114036 1506960.3113017518821.533114036 1506960.3113017
518831.533114036 1506960.3113017518841.533114036 1506960.3113017
518851.533114036 1506960.3113017518861.533114036 1506960.3113017
518871.533114036 1506960.3113017518881.533114036 1506960.3113017
518891.533114036 1506960.3113017518901.533114036 1506960.3113017
518911.533114036 1506960.3113017518921.533114036 1506960.3113017
518931.533114036 1506960.3113017518941.533114036 1506960.3113017
518951.533114036 1506960.3113017518961.533114036 1506960.3113017
518971.533114036 1506960.3113017518981.533114036 1506960.3113017
518991.533114036 1506960.3113017519001.533114036 1506960.3113017
519011.533114036 1506960.3113017519021.533114036 1506960.3113017
519031.533114036 1506960.3113017519041.533114036 1506960.3113017
519051.533114036 1506960.3113017519061.533114036 1506960.3113017
519071.533114036 1506960.3113017519081.533114036 1506960.3113017
519091.533114036 1506960.3113017519101.533114036 1506960.3113017
519111.533114036 1506960.3113017519121.533114036 1506960.3113017
519131.533114036 1506960.3113017519141.533114036 1506960.3113017
519151.533114036 1506960.3113017519161.533114036 1506960.3113017
519171.533114036 1506960.3113017519181.533114036 1506960.3113017
519191.533114036 1506960.3113017519201.533114036 1506960.3113017
519211.533114036 1506960.3113017519221.533114036 1506960.3113017
519231.533114036 1506960.3113017519241.533114036 1506960.3113017
519251.533114036 1506960.3113017519261.533114036 1506960.3113017
519271.533114036 1506960.3113017519281.533114036 1506960.3113017
519291.533114036 1506960.3113017519301.533114036 1506960.3113017
519311.533114036 1506960.3113017519321.533114036 1506960.3113017
519331.533114036 1506960.3113017519341.533114036 1506960.3113017
519351.533114036 1506960.3113017518601.533114036 1506950.3113017
518611.533114036 1506950.3113017518621.533114036 1506950.3113017